data_BL2810_publ

_publ_block_id
; Mar 14 12:14:49 |BL2810_overall|||
;
_audit_creation_date     "Mar 14 12:14:49" 
_audit_creation_method   "from EXP file using GSAS2CIF"
_audit_update_record
; Mar 14 12:14:49 2003   Initial CIF as created by GSAS2CIF
;

_publ_contact_author           "W. Schnick"

_publ_contact_author_email     "wolfgang.schnick@uni-muenchen.de"

_publ_contact_author_fax         089/2180-77440

_publ_requested_journal          "Inorg. Chem."

_publ_section_title
;BL 28 NH4dca, Neutronen-TOF 10K                                     
;

loop_
_publ_author_name    
,                     Bettina V. Lotsch, Juergen Senker, 
                      and Wolfgang Schnick
;
_publ_author_address  
;                     Department Chemie
                      Ludwig-Maximilians-Universitaet Muenchen
                      Butenandtstrasse 5-13 (D)
                      D-81377 Muenchen
                      Germany
;



data_BL2810_overall

_refine_ls_shift/esd_max               0.01
_refine_ls_shift/esd_mean              0.00
_computing_structure_refinement        GSAS
_refine_ls_number_parameters           87
_refine_ls_goodness_of_fit_all         1.40
data_BL2810_phase_1

_pd_block_id
      Mar 14 12:14:49 |PHASE_1||

_pd_phase_name                         NH4dca
_cell_length_a                         3.73275(10)
_cell_length_b                         12.31771(29)
_cell_length_c                         9.13033(27)
_cell_angle_alpha                      90.0
_cell_angle_beta                       91.5962(23)
_cell_angle_gamma                      90.0
_symmetry_cell_setting                 monoclinic
_symmetry_space_group_name_H-M         "P 21/c"
loop_ _symmetry_equiv_pos_as_xyz
   +x,+y,+z -x,+y+1/2,-z+1/2 
   -x,-y,-z +x,-y+1/2,+z+1/2                             

loop_ _atom_site_label
      _atom_site_fract_x
      _atom_site_fract_y
      _atom_site_fract_z
      _atom_site_occupancy
      _atom_site_thermal_displace_type
      _atom_site_U_iso_or_equiv
      _atom_site_symmetry_multiplicity
N1      0.5476(7)    0.38372(24) -0.11509(27)  1.0        Uiso   0.0131(6)     4
C1      0.4816(9)    0.36048(30)  0.0027(4)    1.0        Uiso   0.0111(8)     4
N2      0.3812(7)    0.32359(21)  0.1298(4)    1.0        Uiso   0.0133(5)     4
C2      0.4812(9)    0.3705(4)    0.2511(4)    1.0        Uiso   0.0124(8)     4
N3      0.5501(7)    0.40813(18)  0.36614(27)  1.0        Uiso   0.0101(6)     4
N4     -0.0010(7)    0.11240(23)  0.1324(4)    1.0        Uani   0.01402       4
D1      0.1750(11)   0.0500(4)    0.1349(6)    1.0        Uani   0.02956       4
D2     -0.1619(10)   0.1084(4)    0.0391(5)    1.0        Uani   0.02056       4
D3     -0.1583(11)   0.1105(5)    0.2258(4)    1.0        Uani   0.02865       4
D4      0.1410(12)   0.18315(34)  0.1356(6)    1.0        Uani   0.03003       4

loop_ _atom_site_aniso_label
      _atom_site_aniso_U_11
      _atom_site_aniso_U_22
      _atom_site_aniso_U_33
      _atom_site_aniso_U_12
      _atom_site_aniso_U_13
      _atom_site_aniso_U_23
N4      0.0148(16)   0.0089(13)   0.0183(14)  -0.0030(15)   
       -0.0005(12)   -0.0015(16)
D1      0.0229(28)  0.0438(33)   0.0221(29)   0.0187(23)  
        0.0026(23)   0.0048(24)
D2      0.0281(29)  0.0188(23)   0.0144(20)  -0.0008(21)   
       -0.0047(17)  -0.0001(23) 
D3      0.0352(26)  0.0319(29)  0.0193(21)  -0.0020(28)  
        0.0081(19)   -0.0033(26)
D4      0.0407(31)  0.0134(23)  0.0357(31)  -0.0045(20)   
       -0.0035(27)   0.0013(24)


loop_ _atom_type_symbol
      _atom_type_number_in_cell
                   N  16.0        
                   C   8.0        
                   D  16.0        
data_BL2810_phase_2

_pd_block_id
      Mar 14 12:14:49 |PHASE_2||

_pd_phase_name                         NH4Cl
_cell_length_a                         3.7155(11)
_cell_length_b                         3.7155
_cell_length_c                         3.7155
_cell_angle_alpha                      90.0
_cell_angle_beta                       90.0
_cell_angle_gamma                      90.0
_symmetry_cell_setting                 cubic
_symmetry_space_group_name_H-M         "P m -3 m"
loop_ _symmetry_equiv_pos_as_xyz
   +x,+y,+z +z,+x,+y +y,+z,+x +x,+y,-z 
   -z,+x,+y +y,-z,+x -z,+x,-y -y,-z,+x         
   +y,-z,-x -x,+y,-z -z,-x,+y +x,-y,-z 
   +y,+x,+z +z,+y,+x +x,+z,+y +y,+x,-z         
   -z,+y,+x +x,-z,+y -z,+y,-x -x,-z,+y 
   +x,-z,-y -y,+x,-z -z,-y,+x +y,-x,-z         
   -x,-y,-z -z,-x,-y -y,-z,-x -x,-y,+z 
   +z,-x,-y -y,+z,-x +z,-x,+y +y,+z,-x         
   -y,+z,+x +x,-y,+z +z,+x,-y -x,+y,+z 
   -y,-x,-z -z,-y,-x -x,-z,-y -y,-x,+z         
   +z,-y,-x -x,+z,-y +z,-y,+x +x,+z,-y 
   -x,+z,+y +y,-x,+z +z,+y,-x -y,+x,+z         

loop_ _atom_site_label
      _atom_site_fract_x
      _atom_site_fract_y
      _atom_site_fract_z
      _atom_site_occupancy
      _atom_site_thermal_displace_type
      _atom_site_U_iso_or_equiv
      _atom_site_symmetry_multiplicity
D1      0.146        0.146        0.146        0.5        Uiso   0.025         8
N1      0.0          0.0          0.0          1.0        Uiso   0.025         1
Cl1     0.5          0.5          0.5          1.0        Uiso   0.025         1

loop_ _atom_type_symbol
      _atom_type_number_in_cell
                   N   1.0        
                   D   4.0        
                   CL  1.0        
data_BL2810_p_01

_pd_block_id
     Mar 14 12:14:49 |POWSET_01||  rotax                                 
#_pd_meas_datetime_initiated           ?
#_pd_meas_info_author_name             ?
#_pd_meas_info_author_email            ?
#_pd_meas_info_author_address          ?
#_pd_meas_info_author_telephone        ?
_diffrn_measurement_temperature     10 K 
#_diffrn_ambient_temperature           ?
#_diffrn_ambient_environment           ?
#_diffrn_ambient_pressure              ?
#_diffrn_radiation_source              white neutron beam, ROTAX-TOF, ISIS
#_diffrn_radiation_detector            linear position-sensitive scintillation detector, Anger technology
loop_  _pd_phase_id
_pd_phase_block_id      Mar 14 12:14:49 |PHASE_1||
_pd_phase_block_id      Mar 14 12:14:49 |PHASE_2||
_pd_instr_radiation_probe              neutron
_pd_proc_ls_prof_R_factor              0.0341
_pd_proc_ls_prof_wR_factor             0.0403
_pd_proc_ls_prof_wR_expected           0.0378
_pd_proc_info_datetime                 "Mar 14 12:14:49 2003"
_pd_calc_method                        "Rietveld Refinement"

loop_
      _pd_meas_time_of_flight
      _pd_proc_d_spacing
      _pd_meas_intensity_total
      _pd_proc_ls_weight
      _pd_proc_intensity_calc_bkg
      _pd_calc_intensity_total
   2429.313     2.01652    0.0266(14)    0.0        0.02277  ?        
   2434.188     2.02054    0.0259(14)   513962.     0.02276    0.00000
   2439.063     2.02457    0.0236(13)   562500.     0.02275    0.00000
   2443.938     2.02859    0.0228(13)   580216.     0.02274    0.00000
   2448.828     2.03263    0.0235(13)   569735.     0.02274    0.00000
   2453.734     2.03668    0.0247(13)   552601.     0.02273    0.00000
   2458.641     2.04073    0.0248(14)   536228.     0.02272    0.00000
   2463.563     2.04479    0.0249(14)   543081.     0.02271    0.00000
   2468.5       2.04886    0.0251(14)   527225.     0.02271    0.00000
   2473.438     2.05294    0.0262(14)   512054.     0.02270    0.00000
   2478.391     2.05703    0.0273(14)   489754.     0.02270    0.00000
   2483.359     2.06113    0.0285(14)   476244.     0.02269    0.00000
   2488.328     2.06523    0.0277(14)   489754.     0.02269    0.00000
   2493.313     2.06934    0.0237(13)   573921.     0.02268    0.00000
   2498.313     2.07347    0.0252(14)   525100.     0.02268    0.00000
   2503.313     2.07760    0.0229(13)   591716.     0.02268    0.00000
   2508.313     2.08173    0.0252(14)   540657.     0.02267    0.00000
   2513.328     2.08587    0.0228(13)   618005.     0.02267    0.00000
   2518.359     2.09002    0.0228(13)   618005.     0.02267    0.00000
   2523.406     2.09418    0.0246(13)   554258.     0.02266    0.00000
   2528.469     2.09836    0.0252(14)   538309.     0.02266    0.00000
   2533.531     2.10254    0.0231(13)   606601.     0.02266    0.00000
   2538.594     2.10672    0.0238(13)   570927.     0.02266    0.00000
   2543.672     2.11091    0.0244(13)   577997.     0.02266    0.00000
   2548.766     2.11512    0.0240(13)   577997.     0.02266    0.00000
   2553.875     2.11934    0.0233(13)   602976.     0.02266    0.00000
   2558.984     2.12355    0.0238(13)   577997.     0.02266    0.00000
   2564.109     2.12778    0.0231(13)   610352.     0.02266    0.00000
   2569.25      2.13203    0.0221(12)   641251.     0.02266    0.00000
   2574.391     2.13627    0.0242(13)   574977.     0.02266    0.00000
   2579.547     2.14053    0.0229(13)   610352.     0.02266    0.00000
   2584.703     2.14478    0.0240(13)   592268.     0.02266    0.00000
   2589.875     2.14905    0.0236(13)   617772.     0.02266    0.00000
   2595.063     2.15334    0.0264(13)   549187.     0.02267    0.00000
   2600.25      2.15762    0.0247(13)   581967.     0.02267    0.00000
   2605.453     2.16191    0.0258(13)   555823.     0.02267    0.00000
   2610.672     2.16622    0.0261(13)   555823.     0.02267    0.00000
   2615.906     2.17054    0.0273(14)   517217.     0.02268    0.00000
   2621.141     2.17486    0.0252(13)   555823.     0.02268    0.00000
   2626.391     2.17920    0.0255(13)   569216.     0.02268    0.00000
   2631.656     2.18354    0.0266(14)   546767.     0.02269    0.00000
   2636.922     2.18789    0.0229(12)   640303.     0.02269    0.00000
   2642.203     2.19225    0.0225(12)   660156.     0.02270    0.00000
   2647.484     2.19661    0.0241(13)   603192.     0.02270    0.00000
   2652.781     2.20098    0.0230(13)   628707.     0.02271    0.00000
   2658.094     2.20537    0.0264(14)   544419.     0.02271    0.00000
   2663.422     2.20977    0.0254(13)   582769.     0.02272    0.00000
   2668.75      2.21417    0.0231(12)   647903.     0.02273    0.00000
   2674.094     2.21858    0.0242(13)   606818.     0.02273    0.00000
   2679.453     2.22300    0.0247(13)   599783.     0.02274    0.00000
   2684.813     2.22743    0.0268(14)   542140.     0.02275    0.00000
   2690.188     2.23186    0.0267(13)   557304.     0.02275    0.00000
   2695.578     2.23631    0.0237(13)   632083.     0.02276    0.00000
   2700.969     2.24076    0.0254(13)   573113.     0.02277    0.00000
   2706.375     2.24523    0.0249(13)   603396.     0.02277    0.00000
   2711.797     2.24970    0.0276(14)   533739.     0.02278    0.00000
   2717.219     2.25418    0.0283(14)   539927.     0.02279    0.00000
   2722.656     2.25867    0.0297(14)   498674.     0.02280    0.00000
   2728.109     2.26317    0.0321(14)   479206.     0.02281    0.00000
   2733.578     2.26769    0.0374(16)   404370.     0.02282    0.00000
   2739.047     2.27220    0.0428(17)   353346.     0.02283    0.00000
   2744.531     2.27673    0.0435(17)   349751.     0.02283    0.00000
   2750.031     2.28127    0.0481(18)   314973.     0.02284    0.00000
   2755.531     2.28581    0.0473(18)   314973.     0.02285    0.00000
   2761.047     2.29036    0.0450(17)   331974.     0.02286    0.00000
   2766.578     2.29493    0.0412(16)   369457.     0.02287    0.00000
   2772.109     2.29950    0.0332(15)   455008.     0.02288    0.00000
   2777.656     2.30408    0.0319(14)   483459.     0.02289    0.00000
   2783.219     2.30867    0.0308(14)   508570.     0.02290    0.00000
   2788.797     2.31327    0.0331(14)   476910.     0.02292    0.00000
   2794.391     2.31789    0.0374(15)   423067.     0.02293    0.00000
   2799.984     2.32251    0.0435(17)   361776.     0.02294    0.00000
   2805.578     2.32713    0.0540(18)   294939.     0.02295    0.00000
   2811.188     2.33176    0.0651(20)   239249.     0.02296    0.00000
   2816.828     2.33642    0.0723(21)   218518.     0.02297    0.00000
   2822.469     2.34107    0.0752(22)   209139.     0.02298    0.00000
   2828.109     2.34573    0.0735(22)   214950.     0.02300    0.00000
   2833.781     2.35041    0.0741(22)   213812.     0.02301    0.00000
   2839.453     2.35510    0.0716(21)   222175.     0.02302    0.00000
   2845.125     2.35978    0.0726(21)   220939.     0.02303    0.00000
   2850.828     2.36449    0.0760(22)   212696.     0.02305    0.00000
   2856.547     2.36921    0.0836(23)   190572.     0.02306    0.00000
   2862.266     2.37393    0.0955(25)   164499.     0.02307    0.00000
   2867.984     2.37866    0.0990(25)   159930.     0.02308    0.00000
   2873.719     2.38339    0.0990(25)   157253.     0.02310    0.00000
   2879.484     2.38815    0.0912(24)   170525.     0.02311    0.00000
   2885.25      2.39291    0.0844(23)   184131.     0.02312    0.00000
   2891.016     2.39767    0.0652(20)   244158.     0.02314    0.00000
   2896.813     2.40246    0.0526(18)   300687.     0.02315    0.00000
   2902.609     2.40724    0.0429(16)   370336.     0.02316    0.00000
   2908.422     2.41204    0.0336(14)   483977.     0.02318    0.00000
   2914.25      2.41686    0.0294(14)   541342.     0.02319    0.00000
   2920.078     2.42167    0.0265(13)   607101.     0.02321    0.00000
   2925.922     2.42649    0.0264(13)   623620.     0.02322    0.00000
   2931.781     2.43133    0.0255(13)   630307.     0.02323    0.00000
   2937.656     2.43618    0.0253(13)   630307.     0.02325    0.00000
   2943.531     2.44103    0.0243(12)   665811.     0.02326    0.00000
   2949.422     2.44590    0.0233(12)   692001.     0.02328    0.00000
   2955.328     2.45078    0.0238(12)   692001.     0.02329    0.00000
   2961.25      2.45567    0.0238(12)   680052.     0.02331    0.00000
   2967.188     2.46057    0.0256(12)   643789.     0.02332    0.00000
   2973.125     2.46547    0.0238(12)   699344.     0.02334    0.00000
   2979.078     2.47039    0.0231(12)   706724.     0.02335    0.00000
   2985.047     2.47532    0.0241(12)   687230.     0.02337    0.00000
   2991.016     2.48024    0.0240(12)   687230.     0.02338    0.00000
   2997.0       2.48519    0.0244(12)   694445.     0.02340    0.00000
   3003.0       2.49014    0.0250(12)   657414.     0.02341    0.00000
   3009.016     2.49511    0.0260(12)   646684.     0.02343    0.00000
   3015.047     2.50009    0.0257(12)   646684.     0.02344    0.00000
   3021.078     2.50507    0.0260(12)   646684.     0.02346    0.00000
   3027.125     2.51006    0.0246(12)   689696.     0.02347    0.00000
   3033.188     2.51507    0.0252(12)   671182.     0.02349    0.00000
   3039.25      2.52007    0.0254(12)   671182.     0.02350    0.00000
   3045.328     2.52509    0.0245(12)   696825.     0.02352    0.00000
   3051.422     2.53013    0.0239(12)   716315.     0.02353    0.00000
   3057.531     2.53517    0.0236(12)   744210.     0.02355    0.00000
   3063.656     2.54023    0.0229(12)   744210.     0.02356    0.00000
   3069.797     2.54530    0.0238(12)   731084.     0.02358    0.00000
   3075.953     2.55038    0.0234(12)   751823.     0.02359    0.00000
   3082.109     2.55547    0.0272(13)   622936.     0.02361    0.00000
   3088.266     2.56055    0.0256(12)   656153.     0.02363    0.00000
   3094.438     2.56565    0.0239(12)   699145.     0.02364    0.00000
   3100.641     2.57077    0.0268(13)   635649.     0.02366    0.00000
   3106.859     2.57591    0.0282(13)   604263.     0.02367    0.00000
   3113.078     2.58104    0.0287(13)   604263.     0.02369    0.00000
   3119.313     2.58619    0.0303(13)   567027.     0.02370    0.00000
   3125.563     2.59135    0.0366(14)   482253.     0.02372    0.00000
   3131.813     2.59651    0.0427(16)   406732.     0.02373    0.00000
   3138.078     2.60169    0.0494(17)   364775.     0.02375    0.00000
   3144.359     2.60688    0.0576(18)   308983.     0.02377    0.00000
   3150.656     2.61208    0.0701(20)   250993.     0.02378    0.00000
   3156.969     2.61729    0.0808(21)   218643.     0.02380    0.00000
   3163.281     2.62250    0.0908(23)   189525.     0.02381    0.00000
   3169.609     2.62773    0.0931(23)   186233.     0.02383    0.00000
   3175.953     2.63297    0.0927(23)   181267.     0.02384    0.00000
   3182.313     2.63822    0.0813(21)   236820.     0.02386    0.00000
   3188.688     2.64349    0.0725(21)   229751.     0.02387    0.00000
   3195.078     2.64876    0.0632(19)   266910.     0.02389    0.00000
   3201.484     2.65405    0.0523(17)   365255.     0.02390    0.00000
   3207.891     2.65935    0.0461(17)   365255.     0.02392    0.00000
   3214.313     2.66465    0.0412(15)   440444.     0.02393    0.00000
   3220.75      2.66997    0.0397(15)   431502.     0.02395    0.00000
   3227.188     2.67528    0.0340(14)   535142.     0.02396    0.00000
   3233.641     2.68061    0.0303(13)   593038.     0.02398    0.00000
   3240.125     2.68597    0.0313(13)   571255.     0.02399    0.00000
   3246.609     2.69132    0.0307(13)   593038.     0.02401    0.00000
   3253.109     2.69669    0.0306(13)   590411.     0.02402    0.00000
   3259.625     2.70207    0.0325(13)   571255.     0.02404    0.00000
   3266.141     2.70745    0.0385(15)   472656.     0.02405    0.00000
   3272.688     2.71286    0.0387(15)   467300.     0.02407    0.00000
   3279.25      2.71828    0.0420(15)   430664.     0.02408    0.00000
   3285.813     2.72370    0.0454(16)   398173.     0.02410    0.00000
   3292.391     2.72914    0.0452(16)   401974.     0.02411    0.00000
   3298.984     2.73458    0.0437(15)   417893.     0.02412    0.00000
   3305.578     2.74003    0.0463(16)   394354.     0.02414    0.00000
   3312.188     2.74549    0.0493(16)   376291.     0.02415    0.00000
   3318.828     2.75097    0.0534(17)   346978.     0.02417    0.00000
   3325.469     2.75646    0.0542(17)   337724.     0.02418    0.00000
   3332.125     2.76195    0.0565(17)   326705.     0.02419    0.00000
   3338.797     2.76747    0.0573(18)   318196.     0.02421    0.00000
   3345.469     2.77298    0.0565(18)   321191.     0.02422    0.00000
   3352.172     2.77851    0.0548(17)   335476.     0.02424    0.00000
   3358.891     2.78406    0.0512(17)   353525.     0.02425    0.00000
   3365.609     2.78961    0.0452(16)   409448.     0.02426    0.00000
   3372.344     2.79518    0.0423(15)   437933.     0.02427    0.00000
   3379.094     2.80075    0.0387(14)   484244.     0.02429    0.00000
   3385.859     2.80634    0.0361(14)   531684.     0.02430    0.00000
   3392.641     2.81194    0.0395(14)   478815.     0.02431    0.00000
   3399.438     2.81755    0.0417(15)   464102.     0.02433    0.00000
   3406.25      2.82318    0.0465(16)   413049.     0.02434    0.00000
   3413.063     2.82881    0.0543(17)   350927.     0.02435    0.00000
   3419.891     2.83445    0.0655(19)   285870.     0.02436    0.00000
   3426.734     2.84010    0.0752(20)   249544.     0.02438    0.00000
   3433.594     2.84577    0.0762(20)   244633.     0.02439    0.00000
   3440.469     2.85145    0.0740(20)   251828.     0.02440    0.00000
   3447.359     2.85714    0.0729(20)   254123.     0.02441    0.00000
   3454.266     2.86285    0.0624(18)   300430.     0.02442    0.00000
   3461.188     2.86856    0.0534(17)   351588.     0.02443    0.00000
   3468.125     2.87429    0.0432(15)   444979.     0.02445    0.00000
   3475.063     2.88002    0.0425(15)   444979.     0.02446    0.00000
   3482.016     2.88577    0.0383(14)   495495.     0.02447    0.00000
   3488.984     2.89153    0.0384(14)   505659.     0.02448    0.00000
   3495.969     2.89729    0.0381(14)   510204.     0.02449    0.00000
   3502.969     2.90308    0.0408(14)   480345.     0.02450    0.00000
   3509.984     2.90887    0.0434(15)   457087.     0.02451    0.00000
   3517.016     2.91468    0.0497(16)   394121.     0.02452    0.00000
   3524.047     2.92049    0.0545(17)   355059.     0.02453    0.00000
   3531.094     2.92631    0.0597(18)   324395.     0.02454    0.00000
   3538.172     2.93216    0.0630(18)   311993.     0.02455    0.00000
   3545.266     2.93802    0.0665(18)   293231.     0.02456    0.00000
   3552.359     2.94388    0.0657(18)   293231.     0.02457    0.00000
   3559.469     2.94975    0.0674(19)   291355.     0.02458    0.00000
   3566.594     2.95564    0.0719(19)   270476.     0.02459    0.00000
   3573.734     2.96154    0.0724(19)   272854.     0.02460    0.00000
   3580.891     2.96745    0.0725(19)   276881.     0.02461    0.00000
   3588.063     2.97338    0.0771(20)   256200.     0.02461    0.00000
   3595.25      2.97931    0.0837(21)   235848.     0.02462    0.00000
   3602.438     2.98525    0.0905(21)   220685.     0.02463    0.00000
   3609.641     2.99120    0.0977(22)   206125.     0.02464    0.00000
   3616.875     2.99718    0.0986(22)   202780.     0.02465    0.00000
   3624.125     3.00317    0.1019(22)   197834.     0.02465    0.00000
   3631.375     3.00916    0.1144(24)   175624.     0.02466    0.00000
   3638.641     3.01516    0.1280(25)   158310.     0.02467    0.00000
   3645.922     3.02118    0.1447(27)   138007.     0.02468    0.00000
   3653.219     3.02720    0.1564(28)   128491.     0.02468    0.00000
   3660.531     3.03325    0.1676(29)   118976.     0.02469    0.00000
   3667.859     3.03930    0.1739(29)   115592.     0.02470    0.00000
   3675.203     3.04537    0.1721(29)   117763.     0.02470    0.00000
   3682.563     3.05145    0.1769(29)   115506.     0.02471    0.00000
   3689.938     3.05754    0.1860(30)   109374.     0.02471    0.00000
   3697.328     3.06365    0.1983(31)   101911.     0.02472    0.00000
   3704.734     3.06977    0.2069(32)   96837.      0.02473    0.00000
   3712.156     3.07590    0.2111(32)   95240.      0.02473    0.00000
   3719.594     3.08204    0.2032(32)   98482.      0.02474    0.00000
   3727.031     3.08819    0.1793(30)   112240.     0.02474    0.00000
   3734.484     3.09435    0.1499(27)   134040.     0.02475    0.00000
   3741.969     3.10053    0.1128(24)   179546.     0.02475    0.00000
   3749.469     3.10673    0.0849(20)   240292.     0.02475    0.00000
   3756.969     3.11293    0.0615(17)   332840.     0.02476    0.00000
   3764.484     3.11914    0.0483(15)   421520.     0.02476    0.00000
   3772.016     3.12536    0.0428(14)   477399.     0.02477    0.00000
   3779.563     3.13159    0.0399(14)   518743.     0.02477    0.00000
   3787.141     3.13786    0.0367(13)   565288.     0.02477    0.00000
   3794.734     3.14413    0.0346(13)   600427.     0.02478    0.00000
   3802.328     3.15040    0.0349(13)   588359.     0.02478    0.00000
   3809.938     3.15669    0.0299(12)   686917.     0.02478    0.00000
   3817.563     3.16299    0.0301(12)   702097.     0.02478    0.00000
   3825.203     3.16931    0.0312(12)   663402.     0.02479    0.00000
   3832.859     3.17563    0.0309(12)   677745.     0.02479    0.00000
   3840.531     3.18197    0.0323(12)   654822.     0.02479    0.00000
   3848.219     3.18832    0.0298(12)   698224.     0.02479    0.00000
   3855.922     3.19469    0.0304(12)   688855.     0.02479    0.00000
   3863.641     3.20107    0.0285(12)   735545.     0.02479    0.00000
   3871.375     3.20746    0.0290(12)   725305.     0.02480    0.00000
   3879.125     3.21386    0.0298(12)   709623.     0.02480    0.00000
   3886.891     3.22028    0.0290(12)   747504.     0.02480    0.00000
   3894.672     3.22671    0.0274(11)   799945.     0.02480    0.00000
   3902.469     3.23315    0.0277(11)   788161.     0.02480    0.00000
   3910.281     3.23961    0.0302(12)   737051.     0.02480    0.00000
   3918.109     3.24608    0.0325(12)   681711.     0.02480    0.00000
   3925.953     3.25256    0.0381(13)   579927.     0.02480    0.00000
   3933.813     3.25905    0.0432(14)   512526.     0.02480    0.00000
   3941.688     3.26556    0.0520(15)   423575.     0.02479    0.00000
   3949.578     3.27208    0.0608(17)   358751.     0.02479    0.00000
   3957.484     3.27862    0.0664(17)   328234.     0.02479    0.00000
   3965.406     3.28516    0.0748(19)   291563.     0.02479    0.00000
   3973.359     3.29173    0.0817(19)   267756.     0.02479    0.00000
   3981.313     3.29831    0.0826(19)   265660.     0.02479    0.00000
   3989.281     3.30489    0.0756(19)   284444.     0.02478    0.00000
   3997.266     3.31149    0.0689(18)   323985.     0.02478    0.00000
   4005.266     3.31810    0.0666(17)   329087.     0.02478    0.00000
   4013.297     3.32474    0.0627(17)   359217.     0.02478    0.00000
   4021.328     3.33138    0.0639(17)   343657.     0.02477    0.00000
   4029.375     3.33803    0.0677(17)   326965.     0.02477    0.00000
   4037.438     3.34469    0.0659(17)   336442.     0.02477    0.00000
   4045.516     3.35137    0.0684(18)   324880.     0.02476    0.00000
   4053.625     3.35807    0.0678(17)   327394.     0.02476    0.00000
   4061.75      3.36478    0.0633(17)   346648.     0.02475    0.00000
   4069.875     3.37150    0.0552(16)   396705.     0.02475    0.00000
   4078.016     3.37823    0.0471(15)   469772.     0.02474    0.00000
   4086.188     3.38498    0.0408(14)   544072.     0.02474    0.00000
   4094.375     3.39175    0.0371(13)   596611.     0.02473    0.00000
   4102.563     3.39851    0.0340(12)   657143.     0.02473    0.00000
   4110.766     3.40529    0.0309(12)   732941.     0.02472    0.00000
   4119.0       3.41210    0.0302(12)   738525.     0.02472    0.00000
   4127.25      3.41892    0.0305(12)   738525.     0.02471    0.00000
   4135.516     3.42575    0.0278(11)   810245.     0.02471    0.00000
   4143.797     3.43259    0.0264(11)   846656.     0.02470    0.00000
   4152.094     3.43945    0.0272(11)   834412.     0.02469    0.00000
   4160.406     3.44632    0.0267(11)   853058.     0.02469    0.00000
   4168.734     3.45320    0.0261(11)   859484.     0.02468    0.00000
   4177.078     3.46010    0.0270(11)   840697.     0.02467    0.00000
   4185.438     3.46701    0.0260(11)   865934.     0.02466    0.00000
   4193.813     3.47393    0.0244(10)   926683.     0.02466    0.00000
   4202.203     3.48087    0.0239(10)   955449.     0.02465    0.00000
   4210.625     3.48783    0.0250(10)   940566.     0.02464    0.00000
   4219.063     3.49480    0.0247(10)   940566.     0.02463    0.00000
   4227.5       3.50178    0.0236(10)   985348.     0.02462    0.00000
   4235.953     3.5088     0.0244(10)   947546.     0.02462    0.00000
   4244.438     3.5158     0.0261(11)   891975.     0.02461    0.00000
   4252.938     3.5228     0.0266(11)   872479.     0.02460    0.00000
   4261.453     3.5298     0.0265(11)   878906.     0.02459    0.00000
   4269.984     3.5369     0.0276(11)   841510.     0.02458    0.00000
   4278.531     3.5440     0.0282(11)   829747.     0.02457    0.00000
   4287.094     3.5510     0.0272(11)   866215.     0.02456    0.00000
   4295.672     3.5581     0.0284(11)   818311.     0.02455    0.00000
   4304.281     3.5652     0.0281(11)   841904.     0.02454    0.00000
   4312.906     3.5724     0.0260(11)   898329.     0.02453    0.00000
   4321.531     3.5795     0.0275(11)   860107.     0.02452    0.00000
   4330.188     3.5867     0.0260(10)   911395.     0.02451    0.00000
   4338.859     3.5938     0.0256(10)   925070.     0.02450    0.00000
   4347.531     3.6010     0.0248(10)   952817.     0.02449    0.00000
   4356.234     3.6082     0.0241(10)   981619.     0.02447    0.00000
   4364.969     3.6154     0.0251(10)   945216.     0.02446    0.00000
   4373.719     3.6226     0.0261(11)   904566.     0.02445    0.00000
   4382.469     3.6299     0.0254(10)   924556.     0.02444    0.00000
   4391.234     3.6371     0.0253(10)   951980.     0.02443    0.00000
   4400.031     3.6444     0.0243(10)   1002843.    0.02442    0.00000
   4408.844     3.6517     0.0246(10)   980434.     0.02440    0.00000
   4417.672     3.6590     0.0243(10)   987400.     0.02439    0.00000
   4426.516     3.6663     0.0255(10)   944474.     0.02438    0.00000
   4435.375     3.6736     0.0263(10)   930596.     0.02437    0.00000
   4444.25      3.6810     0.0285(11)   854662.     0.02435    0.00000
   4453.141     3.6883     0.0325(12)   747679.     0.02434    0.00000
   4462.063     3.6957     0.0384(13)   636790.     0.02433    0.00000
   4471.0       3.7031     0.0424(13)   573678.     0.02431    0.00000
   4479.953     3.7105     0.0476(14)   514806.     0.02430    0.00000
   4488.922     3.7179     0.0516(15)   468728.     0.02429    0.00000
   4497.906     3.7253     0.0563(15)   431563.     0.02427    0.00000
   4506.906     3.7327     0.0594(16)   407424.     0.02426    0.00000
   4515.922     3.7402     0.0583(16)   416140.     0.02424    0.00000
   4524.969     3.7477     0.0537(15)   450639.     0.02423    0.00000
   4534.031     3.7552     0.0508(14)   478579.     0.02421    0.00000
   4543.109     3.7627     0.0464(14)   529256.     0.02420    0.00000
   4552.203     3.7702     0.0401(13)   604108.     0.02419    0.00000
   4561.313     3.7777     0.0342(12)   713869.     0.02417    0.00000
   4570.453     3.7853     0.0320(11)   760426.     0.02416    0.00000
   4579.609     3.7929     0.0291(11)   838369.     0.02414    0.00000
   4588.766     3.8004     0.0269(10)   909689.     0.02413    0.00000
   4597.953     3.8080     0.0247(10)   1004080.    0.02411    0.00000
   4607.156     3.8156     0.0267(10)   935293.     0.02409    0.00000
   4616.375     3.8233     0.0254(10)   989276.     0.02408    0.00000
   4625.625     3.8309     0.0242(10)   1033239.    0.02406    0.00000
   4634.891     3.8386     0.0249(10)   995972.     0.02405    0.00000
   4644.172     3.8462     0.0256(10)   974894.     0.02403    0.00000
   4653.469     3.8539     0.0250(10)   1002690.    0.02402    0.00000
   4662.781     3.8616     0.0248(10)   1002690.    0.02400    0.00000
   4672.109     3.8693     0.0248(10)   1009431.    0.02398    0.00000
   4681.469     3.8771     0.0256(10)   973857.     0.02397    0.00000
   4690.844     3.8848     0.0262(10)   973857.     0.02395    0.00000
   4700.234     3.8926     0.0252(10)   1001330.    0.02393    0.00000
   4709.641     3.9004     0.0238(10)   1068440.    0.02392    0.00000
   4719.063     3.9082     0.0245(10)   1029789.    0.02390    0.00000
   4728.516     3.9160     0.0239(10)   1059277.    0.02388    0.00000
   4737.984     3.9238     0.0253(10)   993432.     0.02387    0.00000
   4747.469     3.9317     0.0253(10)   1000000.    0.02385    0.00000
   4756.969     3.9395     0.0232(9)    1114198.    0.02383    0.00000
   4766.484     3.9474     0.0243(10)   1050350.    0.02382    0.00000
   4776.031     3.9553     0.0236(10)   1080357.    0.02380    0.00000
   4785.594     3.9632     0.0255(10)   992203.     0.02378    0.00000
   4795.172     3.9711     0.0247(10)   1041648.    0.02376    0.00000
   4804.781     3.9790     0.0237(10)   1094525.    0.02375    0.00000
   4814.406     3.9870     0.0212(9)    1223948.    0.02373    0.00000
   4824.047     3.9950     0.0231(9)    1125989.    0.02371    0.00000
   4833.703     4.0030     0.0220(9)    1151150.    0.02369    0.00000
   4843.375     4.0110     0.0225(9)    1133289.    0.02368    0.00000
   4853.063     4.0190     0.0216(9)    1211876.    0.02366    0.00000
   4862.781     4.0270     0.0238(10)   1099116.    0.02364    0.00000
   4872.516     4.0351     0.0240(10)   1092081.    0.02362    0.00000
   4882.266     4.0431     0.0242(10)   1082762.    0.02361    0.00000
   4892.047     4.0512     0.0234(10)   1106173.    0.02359    0.00000
   4901.844     4.0593     0.0237(9)    1113252.    0.02357    0.00000
   4911.656     4.0674     0.0228(9)    1137585.    0.02355    0.00000
   4921.484     4.0756     0.0222(9)    1170141.    0.02353    0.00000
   4931.344     4.0837     0.0247(10)   1058112.    0.02352    0.00000
   4941.219     4.0919     0.0225(9)    1152122.    0.02350    0.00000
   4951.109     4.1001     0.0228(9)    1134626.    0.02348    0.00000
   4961.016     4.1083     0.0228(9)    1134626.    0.02346    0.00000
   4970.938     4.1165     0.0224(9)    1166752.    0.02344    0.00000
   4980.891     4.1247     0.0233(9)    1124672.    0.02343    0.00000
   4990.875     4.1329     0.0225(9)    1181474.    0.02341    0.00000
   5000.875     4.1412     0.0232(9)    1131734.    0.02339    0.00000
   5010.875     4.1495     0.0219(9)    1181474.    0.02337    0.00000
   5020.906     4.1578     0.0226(9)    1170701.    0.02335    0.00000
   5030.969     4.1661     0.0228(9)    1145925.    0.02334    0.00000
   5041.031     4.1744     0.0228(9)    1145925.    0.02332    0.00000
   5051.125     4.1828     0.0231(9)    1160204.    0.02330    0.00000
   5061.25      4.1912     0.0242(9)    1112366.    0.02328    0.00000
   5071.375     4.1995     0.0252(10)   1067426.    0.02326    0.00000
   5081.516     4.2079     0.0282(10)   953674.     0.02325    0.00000
   5091.688     4.2163     0.0322(11)   827369.     0.02323    0.00000
   5101.891     4.2248     0.0357(11)   762823.     0.02321    0.00000
   5112.109     4.2332     0.0451(13)   599305.     0.02319    0.00000
   5122.344     4.2417     0.0545(14)   492881.     0.02317    0.00000
   5132.594     4.2502     0.0651(16)   415579.     0.02316    0.00000
   5142.859     4.2587     0.0784(17)   345156.     0.02314    0.00000
   5153.156     4.2672     0.0860(18)   310731.     0.02312    0.00000
   5163.484     4.2757     0.0902(18)   296380.     0.02310    0.00000
   5173.828     4.2843     0.0908(18)   293285.     0.02308    0.00000
   5184.188     4.2928     0.0839(18)   317937.     0.02307    0.00000
   5194.563     4.3014     0.0724(17)   363847.     0.02305    0.00000
   5204.953     4.3100     0.0585(15)   456612.     0.02303    0.00000
   5215.375     4.3186     0.0461(13)   580433.     0.02301    0.00000
   5225.813     4.3273     0.0391(12)   675438.     0.02300    0.00000
   5236.266     4.3359     0.0339(11)   787092.     0.02298    0.00000
   5246.75      4.3446     0.0282(10)   962966.     0.02296    0.00000
   5257.266     4.3533     0.0267(10)   1025400.    0.02295    0.00000
   5267.797     4.3620     0.0257(10)   1045407.    0.02293    0.00000
   5278.344     4.3707     0.0231(9)    1185741.    0.02291    0.00000
   5288.906     4.3795     0.0239(9)    1138317.    0.02289    0.00000
   5299.484     4.3882     0.0236(9)    1145062.    0.02288    0.00000
   5310.094     4.3970     0.0241(9)    1128906.    0.02286    0.00000
   5320.734     4.4058     0.0226(9)    1206883.    0.02284    0.00000
   5331.391     4.4146     0.0240(9)    1135557.    0.02283    0.00000
   5342.063     4.4234     0.0229(9)    1189324.    0.02281    0.00000
   5352.75      4.4323     0.0231(9)    1165418.    0.02279    0.00000
   5363.469     4.4412     0.0241(9)    1132855.    0.02278    0.00000
   5374.219     4.4500     0.0232(9)    1179089.    0.02276    0.00000
   5384.969     4.4589     0.0230(9)    1179089.    0.02275    0.00000
   5395.75      4.4679     0.0232(9)    1169102.    0.02273    0.00000
   5406.563     4.4768     0.0236(9)    1146066.    0.02271    0.00000
   5417.375     4.4857     0.0225(9)    1217307.    0.02270    0.00000
   5428.219     4.4947     0.0234(9)    1159353.    0.02268    0.00000
   5439.094     4.5037     0.0220(9)    1256941.    0.02267    0.00000
   5449.984     4.5127     0.0227(9)    1189463.    0.02265    0.00000
   5460.891     4.5218     0.0231(9)    1189463.    0.02264    0.00000
   5471.813     4.5308     0.0255(10)   1064693.    0.02262    0.00000
   5482.766     4.5399     0.0252(10)   1091279.    0.02261    0.00000
   5493.75      4.5489     0.0244(9)    1140541.    0.02259    0.00000
   5504.75      4.5580     0.0252(10)   1097506.    0.02258    0.00000
   5515.766     4.5672     0.0240(9)    1147031.    0.02256    0.00000
   5526.813     4.5763     0.0237(9)    1176268.    0.02255    0.00000
   5537.875     4.5854     0.0238(9)    1153539.    0.02253    0.00000
   5548.953     4.5946     0.0231(9)    1206463.    0.02252    0.00000
   5560.063     4.6038     0.0236(9)    1166610.    0.02250    0.00000
   5571.203     4.6130     0.0238(9)    1173173.    0.02249    0.00000
   5582.359     4.6223     0.0231(9)    1196289.    0.02248    0.00000
   5593.531     4.6315     0.0247(9)    1113921.    0.02246    0.00000
   5604.734     4.6408     0.0234(9)    1186355.    0.02245    0.00000
   5615.953     4.6501     0.0223(9)    1258604.    0.02244    0.00000
   5627.188     4.6594     0.0222(9)    1240687.    0.02242    0.00000
   5638.453     4.6687     0.0230(9)    1199610.    0.02241    0.00000
   5649.75      4.6780     0.0225(9)    1254511.    0.02240    0.00000
   5661.063     4.6874     0.0232(9)    1206265.    0.02238    0.00000
   5672.391     4.6968     0.0229(9)    1189725.    0.02237    0.00000
   5683.75      4.7062     0.0237(9)    1151572.    0.02236    0.00000
   5695.125     4.7156     0.0241(9)    1151572.    0.02235    0.00000
   5706.531     4.7250     0.0236(9)    1164262.    0.02234    0.00000
   5717.953     4.7345     0.0215(9)    1275390.    0.02232    0.00000
   5729.391     4.7439     0.0229(9)    1216089.    0.02231    0.00000
   5740.875     4.7534     0.0223(9)    1246583.    0.02230    0.00000
   5752.375     4.7629     0.0214(9)    1322500.    0.02229    0.00000
   5763.891     4.7725     0.0218(9)    1278063.    0.02228    0.00000
   5775.422     4.7820     0.0218(9)    1278063.    0.02227    0.00000
   5786.984     4.7916     0.0228(9)    1219184.    0.02226    0.00000
   5798.578     4.8012     0.0233(9)    1196289.    0.02225    0.00000
   5810.188     4.8108     0.0226(9)    1225765.    0.02224    0.00000
   5821.813     4.8204     0.0235(9)    1180371.    0.02223    0.00000
   5833.453     4.8300     0.0235(9)    1186725.    0.02222    0.00000
   5845.141     4.8397     0.0251(9)    1114594.    0.02221    0.00000
   5856.844     4.8494     0.0245(9)    1149715.    0.02220    0.00000
   5868.563     4.8591     0.0234(9)    1183663.    0.02219    0.00000
   5880.313     4.8688     0.0246(9)    1141012.    0.02218    0.00000
   5892.078     4.8786     0.0243(9)    1147090.    0.02217    0.00000
   5903.875     4.8883     0.0238(9)    1153183.    0.02216    0.00000
   5915.703     4.8981     0.0237(9)    1159293.    0.02215    0.00000
   5927.547     4.9079     0.0216(9)    1296916.    0.02214    0.00000
   5939.406     4.9177     0.0217(9)    1279053.    0.02213    0.00000
   5951.297     4.9276     0.0227(9)    1238176.    0.02213    0.00000
   5963.219     4.9374     0.0227(9)    1221741.    0.02212    0.00000
   5975.156     4.9473     0.0230(9)    1221741.    0.02211    0.00000
   5987.109     4.9572     0.0221(9)    1251209.    0.02210    0.00000
   5999.094     4.9671     0.0223(9)    1257752.    0.02210    0.00000
   6011.109     4.9771     0.0233(9)    1196289.    0.02209    0.00000
   6023.156     4.9871     0.0232(9)    1202512.    0.02208    0.00000
   6035.219     4.9970     0.0233(9)    1202512.    0.02208    0.00000
   6047.297     5.0070     0.0247(9)    1125414.    0.02207    0.00000
   6059.406     5.0171     0.0255(9)    1111649.    0.02206    0.00000
   6071.531     5.0271     0.0268(10)   1055843.    0.02206    0.00000
   6083.688     5.0372     0.0283(10)   997952.     0.02205    0.00000
   6095.875     5.0473     0.0331(11)   865539.     0.02205    0.00000
   6108.078     5.0574     0.0390(12)   740418.     0.02204    0.00000
   6120.297     5.0675     0.0454(13)   629524.     0.02203    0.00000
   6132.547     5.0776     0.0543(14)   521900.     0.02203    0.00000
   6144.828     5.0878     0.0590(14)   476042.     0.02203    0.00000
   6157.125     5.0980     0.0630(15)   438194.     0.02202    0.00000
   6169.453     5.1082     0.0667(16)   404847.     0.02202    0.00000
   6181.813     5.1184     0.0628(15)   433286.     0.02201    0.00000
   6194.188     5.1286     0.0548(14)   494385.     0.02201    0.00000
   6206.578     5.1389     0.0486(13)   565345.     0.02200    0.00000
   6219.0       5.1492     0.0414(12)   660820.     0.02200    0.00000
   6231.453     5.1595     0.0353(11)   793213.     0.02200    0.00000
   6243.938     5.1698     0.0311(11)   883317.     0.02199    0.00000
   6256.438     5.1802     0.0288(10)   953674.     0.02199    0.00000
   6268.953     5.1905     0.0256(10)   1072551.    0.02199    0.00000
   6281.5       5.2009     0.0243(9)    1152870.    0.02199    0.00000
   6294.078     5.2113     0.0237(9)    1178675.    0.02198    0.00000
   6306.688     5.2218     0.0246(10)   1106879.    0.02198    0.00000
   6319.313     5.2322     0.0242(9)    1125560.    0.02198    0.00000
   6331.969     5.2427     0.0237(9)    1156081.    0.02198    0.00000
   6344.656     5.2532     0.0224(9)    1238632.    0.02198    0.00000
   6357.344     5.2637     0.0230(9)    1156081.    0.02198    0.00000
   6370.063     5.2742     0.0217(9)    1319394.    0.02197    0.00000
   6382.828     5.2848     0.0210(9)    1302299.    0.02197    0.00000
   6395.609     5.2954     0.0221(9)    1235239.    0.02197    0.00000
   6408.406     5.3060     0.0223(9)    1263159.    0.02197    0.00000
   6421.234     5.3166     0.0226(9)    1225936.    0.02197    0.00000
   6434.094     5.3273     0.0236(9)    1170578.    0.02197    0.00000
   6446.969     5.3379     0.0233(9)    1151150.    0.02197    0.00000
   6459.875     5.3486     0.0214(9)    1265625.    0.02197    0.00000
   6472.813     5.3593     0.0227(9)    1202089.    0.02197    0.00000
   6485.766     5.3701     0.0228(9)    1187688.    0.02197    0.00000
   6498.75      5.3808     0.0235(9)    1135448.    0.02197    0.00000
   6511.766     5.3916     0.0224(9)    1219574.    0.02198    0.00000
   6524.813     5.4024     0.0226(9)    1204921.    0.02198    0.00000
   6537.875     5.4132     0.0230(9)    1184923.    0.02198    0.00000
   6550.953     5.4240     0.0228(9)    1190599.    0.02198    0.00000
   6564.063     5.4349     0.0211(9)    1325528.    0.02198    0.00000
   6577.203     5.4458     0.0221(9)    1243083.    0.02198    0.00000
   6590.375     5.4567     0.0211(9)    1292436.    0.02199    0.00000
   6603.578     5.4676     0.0215(9)    1276466.    0.02199    0.00000
   6616.797     5.4786     0.0222(9)    1193466.    0.02199    0.00000
   6630.031     5.4895     0.0213(9)    1260862.    0.02199    0.00000
   6643.313     5.5005     0.0229(9)    1171410.    0.02200    0.00000
   6656.625     5.5115     0.0228(9)    1210455.    0.02200    0.00000
   6669.953     5.5226     0.0227(9)    1196289.    0.02200    0.00000
   6683.297     5.5336     0.0228(9)    1196289.    0.02200    0.00000
   6696.672     5.5447     0.0230(9)    1150256.    0.02201    0.00000
   6710.078     5.5558     0.0228(9)    1168884.    0.02201    0.00000
   6723.516     5.5669     0.0223(9)    1199070.    0.02201    0.00000
   6736.984     5.5781     0.0218(9)    1218807.    0.02202    0.00000
   6750.469     5.5893     0.0217(9)    1224469.    0.02202    0.00000
   6763.984     5.6005     0.0221(9)    1190783.    0.02203    0.00000
   6777.516     5.6117     0.0218(9)    1230145.    0.02203    0.00000
   6791.078     5.6229     0.0213(9)    1262141.    0.02203    0.00000
   6804.688     5.6342     0.0221(9)    1188100.    0.02204    0.00000
   6818.313     5.6455     0.0226(9)    1188100.    0.02204    0.00000
   6831.953     5.6568     0.0225(9)    1174686.    0.02205    0.00000
   6845.625     5.6681     0.0221(9)    1180068.    0.02205    0.00000
   6859.328     5.6794     0.0250(10)   1048141.    0.02206    0.00000
   6873.063     5.6908     0.0229(9)    1136125.    0.02206    0.00000
   6886.828     5.7022     0.0219(9)    1196289.    0.02207    0.00000
   6900.625     5.7136     0.0213(9)    1240798.    0.02207    0.00000
   6914.438     5.7251     0.0217(9)    1182870.    0.02208    0.00000
   6928.281     5.7365     0.0215(9)    1193599.    0.02208    0.00000
   6942.156     5.7480     0.0226(9)    1156875.    0.02209    0.00000
   6956.047     5.7595     0.0223(9)    1162092.    0.02210    0.00000
   6969.969     5.7711     0.0225(9)    1149431.    0.02210    0.00000
   6983.922     5.7826     0.0226(9)    1154592.    0.02211    0.00000
   6997.906     5.7942     0.0223(9)    1142125.    0.02211    0.00000
   7011.922     5.8058     0.0226(9)    1129913.    0.02212    0.00000
   7025.953     5.8174     0.0218(9)    1147229.    0.02212    0.00000
   7040.016     5.8291     0.0209(9)    1193641.    0.02213    0.00000
   7054.109     5.8408     0.0218(9)    1157472.    0.02214    0.00000
   7068.234     5.8525     0.0224(9)    1150134.    0.02214    0.00000
   7082.391     5.8642     0.0227(9)    1116058.    0.02215    0.00000
   7096.563     5.8759     0.0224(9)    1120991.    0.02216    0.00000
   7110.766     5.8877     0.0229(10)   1077164.    0.02216    0.00000
   7125.0       5.8995     0.0230(10)   1066281.    0.02217    0.00000
   7139.266     5.9113     0.0225(10)   1086654.    0.02218    0.00000
   7153.563     5.9232     0.0218(9)    1158051.    0.02218    0.00000
   7167.891     5.9350     0.0217(9)    1112366.    0.02219    0.00000
   7182.234     5.9469     0.0219(9)    1128906.    0.02220    0.00000
   7196.609     5.9588     0.0225(10)   1105760.    0.02220    0.00000
   7211.016     5.9708     0.0228(10)   1058878.    0.02221    0.00000
   7225.453     5.9827     0.0219(9)    1131838.    0.02222    0.00000
   7239.922     5.9947     0.0214(9)    1131838.    0.02222    0.00000
   7254.422     6.0067     0.0211(9)    1158613.    0.02223    0.00000
   7268.953     6.0188     0.0220(9)    1108786.    0.02224    0.00000
   7283.5       6.0308     0.0220(10)   1081971.    0.02224    0.00000
   7298.078     6.0429     0.0216(9)    1151479.    0.02225    0.00000
   7312.688     6.0550     0.0227(10)   1091279.    0.02226    0.00000
   7327.328     6.0671     0.0218(9)    1111773.    0.02226    0.00000
   7342.0       6.0793     0.0219(9)    1149356.    0.02227    0.00000
   7356.703     6.0915     0.0221(9)    1137585.    0.02228    0.00000
   7371.422     6.1037     0.0238(10)   1016333.    0.02228    0.00000
   7386.172     6.1159     0.0234(10)   1039169.    0.02229    0.00000
   7400.969     6.1282     0.0253(10)   937290.     0.02230    0.00000
   7415.781     6.1404     0.0241(10)   962283.     0.02230    0.00000
   7430.625     6.1527     0.0238(10)   996647.     0.02231    0.00000
   7445.516     6.1651     0.0245(10)   974502.     0.02232    0.00000
   7460.422     6.1774     0.0242(10)   987539.     0.02232    0.00000
   7475.344     6.1898     0.0238(10)   965759.     0.02233    0.00000
   7490.313     6.2022     0.0228(10)   1013468.    0.02234    0.00000
   7505.313     6.2146     0.0243(10)   986799.     0.02234    0.00000
   7520.328     6.2271     0.0243(10)   965178.     0.02235    0.00000
   7535.391     6.2396     0.0236(10)   999172.     0.02236    0.00000
   7550.484     6.2521     0.0226(10)   1054289.    0.02236    0.00000
   7565.594     6.2646     0.0227(10)   1058659.    0.02237    0.00000
   7580.734     6.2771     0.0222(10)   1063038.    0.02238    0.00000
   7595.906     6.2897     0.0220(10)   1067426.    0.02238    0.00000
   7611.125     6.3023     0.0221(10)   1019966.    0.02239    0.00000
   7626.375     6.3150     0.0221(10)   1047532.    0.02239    0.00000
   7641.641     6.3276     0.0222(10)   1010719.    0.02240    0.00000
   7656.938     6.3403     0.0222(10)   1014857.    0.02240    0.00000
   7672.266     6.3530     0.0220(10)   1032545.    0.02241    0.00000
   7687.625     6.3657     0.0226(10)   996756.     0.02242    0.00000
   7703.016     6.3785     0.0219(10)   1069107.    0.02242    0.00000
   7718.438     6.3913     0.0240(10)   919395.     0.02243    0.00000
   7733.891     6.4041     0.0230(10)   958509.     0.02243    0.00000
   7749.375     6.4169     0.0220(10)   1039863.    0.02244    0.00000
   7764.891     6.4298     0.0218(10)   1030457.    0.02244    0.00000
   7780.438     6.4427     0.0224(10)   995198.     0.02245    0.00000
   7796.0       6.4556     0.0220(10)   1008081.    0.02245    0.00000
   7811.594     6.4685     0.0230(10)   953674.     0.02246    0.00000
   7827.234     6.4814     0.0237(10)   933997.     0.02246    0.00000
   7842.906     6.4944     0.0225(10)   961319.     0.02247    0.00000
   7858.609     6.5075     0.0214(10)   1015282.    0.02247    0.00000
   7874.344     6.5205     0.0228(10)   956994.     0.02248    0.00000
   7890.109     6.5336     0.0232(10)   925966.     0.02248    0.00000
   7905.906     6.5467     0.0239(11)   875443.     0.02248    0.00000
   7921.734     6.5598     0.0222(10)   968421.     0.02249    0.00000
   7937.594     6.5729     0.0233(11)   903638.     0.02249    0.00000
   7953.484     6.5861     0.0226(10)   940693.     0.02250    0.00000
   7969.406     6.5993     0.0237(10)   910767.     0.02250    0.00000
   7985.359     6.6125     0.0225(10)   959769.     0.02250    0.00000
   8001.344     6.6258     0.0239(11)   875483.     0.02251    0.00000
   8017.375     6.6391     0.0233(11)   892747.     0.02251    0.00000
   8033.438     6.6524     0.0224(11)   903344.     0.02251    0.00000
   8049.516     6.6657     0.0233(11)   896224.     0.02252    0.00000
   8065.625     6.6791     0.0225(10)   910387.     0.02252    0.00000
   8081.766     6.6925     0.0242(11)   833172.     0.02252    0.00000
   8097.953     6.7059     0.0231(11)   868833.     0.02252    0.00000
   8114.172     6.7193     0.0234(11)   868833.     0.02253    0.00000
   8130.406     6.7328     0.0243(11)   806027.     0.02253    0.00000
   8146.688     6.7463     0.0218(11)   899465.     0.02253    0.00000
   8163.0       6.7598     0.0210(10)   931682.     0.02253    0.00000
   8179.328     6.7733     0.0224(11)   892506.     0.02253    0.00000
   8195.703     6.7869     0.0220(10)   931367.     0.02254    0.00000
   8212.125     6.8005     0.0213(10)   946015.     0.02254    0.00000
   8228.563     6.8142     0.0234(11)   852769.     0.02254    0.00000
   8245.031     6.8278     0.0229(11)   869003.     0.02254    0.00000
   8261.547     6.8415     0.0221(11)   902636.     0.02254    0.00000
   8278.078     6.8552     0.0222(11)   892350.     0.02254    0.00000
   8294.641     6.8690     0.0227(11)   869059.     0.02254    0.00000
   8311.25      6.8827     0.0227(11)   825318.     0.02254    0.00000
   8327.891     6.8965     0.0223(11)   810608.     0.02254    0.00000
   8344.563     6.9104     0.0211(10)   975010.     0.02254    0.00000
   8361.266     6.9242     0.0210(10)   912707.     0.02254    0.00000
   8378.016     6.9381     0.0229(11)   850170.     0.02254    0.00000
   8394.797     6.9520     0.0221(11)   869168.     0.02254    0.00000
   8411.594     6.9660     0.0228(11)   799740.     0.02254    0.00000
   8428.438     6.9799     0.0232(11)   772476.     0.02254    0.00000
   8445.313     6.9939     0.0223(11)   814337.     0.02254    0.00000
   8462.219     7.0079     0.0218(11)   820381.     0.02254    0.00000
   8479.156     7.0220     0.0225(11)   794678.     0.02254    0.00000
   8496.125     7.0361     0.0225(11)   835357.     0.02254    0.00000
   8513.141     7.0502     0.0241(12)   747413.     0.02254    0.00000
   8530.188     7.0643     0.0237(12)   713481.     0.02254    0.00000
   8547.266     7.0785     0.0231(12)   752909.     0.02253    0.00000
   8564.375     7.0927     0.0243(12)   691077.     0.02253    0.00000
   8581.516     7.1069     0.0238(12)   673833.     0.02253    0.00000
   8598.703     7.1211     0.0253(13)   629628.     0.02253    0.00000
   8615.922     7.1354     0.0253(12)   653498.     0.02253    0.00000
   8633.156     7.1497     0.0237(12)   729248.     0.02253    0.00000
   8650.438     7.1640     0.0264(12)   642410.     0.02252    0.00000
   8667.766     7.1784     0.0246(12)   737197.     0.02252    0.00000
   8685.125     7.1928     0.0265(12)   725420.     0.02252    0.00000
   8702.516     7.2072     0.0303(13)   598474.     0.02252    0.00000
   8719.938     7.2217     0.0384(14)   478815.     0.02251    0.00000
   8737.391     7.2362     0.0446(15)   462016.     0.02251    0.00000
   8754.875     7.2507     0.0564(16)   377039.     0.02251    0.00000
   8772.406     7.2652     0.0765(20)   247527.     0.02250    0.00000
   8789.969     7.2798     0.1009(24)   177378.     0.02250    0.00000
   8807.563     7.2944     0.1275(28)   132061.     0.02250    0.00000
   8825.203     7.3090     0.1449(30)   110147.     0.02250    0.00000
   8842.875     7.3237     0.1551(32)   100117.     0.02249    0.00000
   8860.578     7.3384     0.1544(32)   100471.     0.02249    0.00000
   8878.313     7.3531     0.1411(30)   108851.     0.02249    0.00000
   8896.078     7.3678     0.1210(28)   127487.     0.02248    0.00000
   8913.891     7.3826     0.0998(25)   157935.     0.02248    0.00000
   8931.734     7.3974     0.0794(22)   201005.     0.02248    0.00000
   8949.609     7.4122     0.0604(19)   266287.     0.02247    0.00000
   8967.531     7.4271     0.0482(17)   336982.     0.02247    0.00000
   8985.484     7.4420     0.0380(16)   414789.     0.02247    0.00000
   9003.469     7.4569     0.0329(15)   461374.     0.02246    0.00000
   9021.5       7.4719     0.0301(14)   505695.     0.02246    0.00000
   9039.563     7.4869     0.0281(14)   534764.     0.02245    0.00000
   9057.656     7.5019     0.0258(13)   579965.     0.02245    0.00000
   9075.797     7.5169     0.0252(13)   572308.     0.02245    0.00000
   9093.969     7.5320     0.0236(13)   614568.     0.02244    0.00000
   9112.172     7.5471     0.0235(13)   622033.     0.02244    0.00000
   9130.406     7.5622     0.0224(12)   669755.     0.02244    0.00000
   9148.688     7.5774     0.0231(13)   639476.     0.02243    0.00000
   9167.016     7.5926     0.0252(13)   560588.     0.02243    0.00000
   9185.359     7.6078     0.0240(13)   589088.     0.02243    0.00000
   9203.734     7.6231     0.0221(12)   675203.     0.02242    0.00000
   9222.172     7.6384     0.0232(13)   582431.     0.02242    0.00000
   9240.641     7.6537     0.0228(13)   602173.     0.02242    0.00000
   9259.141     7.6691     0.0226(13)   627159.     0.02241    0.00000
   9277.672     7.6845     0.0241(14)   545082.     0.02241    0.00000
   9296.234     7.6999     0.0222(13)   600221.     0.02241    0.00000
   9314.859     7.7153     0.0229(13)   552461.     0.02240    0.00000
   9333.516     7.7308     0.0242(14)   518859.     0.02240    0.00000
   9352.188     7.7463     0.0239(13)   563253.     0.02240    0.00000
   9370.906     7.7618     0.0230(13)   562500.     0.02240    0.00000
   9389.672     7.7774     0.0240(13)   568919.     0.02239    0.00000
   9408.469     7.7930     0.0242(14)   548562.     0.02239    0.00000
   9427.313     7.8086     0.0241(14)   522989.     0.02239    0.00000
   9446.188     7.8243     0.0233(13)   556587.     0.02239    0.00000
   9465.094     7.8400     0.0210(12)   666299.     0.02239    0.00000
   9484.047     7.8557     0.0234(13)   549032.     0.02238    0.00000
   9503.031     7.8715     0.0223(13)   601416.     0.02238    0.00000
   9522.063     7.8873     0.0235(14)   533432.     0.02238    0.00000
   9541.125     7.9031     0.0244(14)   525349.     0.02238    0.00000
   9560.219     7.9190     0.0224(13)   562500.     0.02238    0.00000
   9579.359     7.9349     0.0214(13)   587139.     0.02238    0.00000
   9598.531     7.9508     0.0225(13)   566182.     0.02238    0.00000
   9617.75      7.9667     0.0233(14)   548169.     0.02238    0.00000
   9637.016     7.9827     0.0230(14)   525421.     0.02238    0.00000
   9656.313     7.9987     0.0229(14)   539219.     0.02238    0.00000
   9675.641     8.0148     0.0227(13)   553522.     0.02238    0.00000
   9695.0       8.0308     0.0236(14)   503684.     0.02238    0.00000
   9714.406     8.0470     0.0241(14)   488868.     0.02238    0.00000
   9733.859     8.0631     0.0212(13)   592155.     0.02238    0.00000
   9753.344     8.0793     0.0217(14)   529419.     0.02238    0.00000
   9772.875     8.0955     0.0248(15)   455043.     0.02238    0.00000
   9792.453     8.1118     0.0239(14)   475991.     0.02238    0.00000
   9812.047     8.1280     0.0226(13)   550842.     0.02239    0.00000
   9831.688     8.1443     0.0232(14)   523894.     0.02239    0.00000
   9851.375     8.1607     0.0241(14)   494385.     0.02239    0.00000
   9871.094     8.1770     0.0229(14)   535065.     0.02240    0.00000
   9890.859     8.1935     0.0245(14)   506312.     0.02240    0.00000
   9910.656     8.2099     0.0234(14)   483269.     0.02240    0.00000
   9930.5       8.2264     0.0235(15)   460128.     0.02241    0.00000
   9950.391     8.2429     0.0236(15)   449227.     0.02241    0.00000
   9970.313     8.2594     0.0224(14)   503418.     0.02241    0.00000
   9990.266     8.2760     0.0217(14)   542954.     0.02242    0.00000
   10010.266    8.2926     0.0252(15)   439949.     0.02242    0.00000
   10030.313    8.3093     0.0237(14)   502571.     0.02243    0.00000
   10050.391    8.3259     0.0211(13)   579314.     0.02244    0.00000
   10070.5      8.3426     0.0230(15)   468573.     0.02244    0.00000
   10090.656    8.3594     0.0211(13)   593694.     0.02245    0.00000
   10110.859    8.3761     0.0215(14)   528955.     0.02245    0.00000
   10131.109    8.3930     0.0254(16)   389424.     0.02246    0.00000
   10151.391    8.4098     0.0224(14)   502872.     0.02247    0.00000
   10171.703    8.4267     0.0232(15)   453783.     0.02248    0.00000
   10192.078    8.4436     0.0239(15)   450588.     0.02249    0.00000
   10212.484    8.4605     0.0239(15)   433314.     0.02249    0.00000
   10232.922    8.4775     0.0247(15)   419574.     0.02250    0.00000
   10253.406    8.4945     0.0252(16)   412977.     0.02251    0.00000
   10273.938    8.5116     0.0239(15)   451553.     0.02252    0.00000
   10294.516    8.5287     0.0224(14)   484047.     0.02253    0.00000
   10315.125    8.5458     0.0213(13)   554407.     0.02254    0.00000
   10335.766    8.5629     0.0219(14)   490297.     0.02255    0.00000
   10356.453    8.5801     0.0219(14)   489941.     0.02256    0.00000
   10377.188    8.5973     0.0218(15)   472087.     0.02257    0.00000
   10397.969    8.6146     0.0243(16)   374706.     0.02258    0.00000
   10418.797    8.6319     0.0224(15)   463990.     0.02259    0.00000
   10439.656    8.6492     0.0215(14)   514597.     0.02261    0.00000
   10460.547    8.6666     0.0208(14)   523307.     0.02262    0.00000
   10481.484    8.6840     0.0217(15)   457532.     0.02263    0.00000
   10502.469    8.7014     0.0244(16)   404959.     0.02264    0.00000
   10523.5      8.7189     0.0215(14)   489651.     0.02266    0.00000
   10544.578    8.7364     0.0211(14)   521845.     0.02267    0.00000
   10565.688    8.7539     0.0226(15)   422500.     0.02268    0.00000
   10586.828    8.7715     0.0234(15)   418583.     0.02269    0.00000
   10608.016    8.7891     0.0219(15)   456647.     0.02271    0.00000
   10629.266    8.8067     0.0217(14)   503213.     0.02272    0.00000
   10650.547    8.8244     0.0209(13)   553684.     0.02274    0.00000
   10671.859    8.8421     0.0207(14)   483353.     0.02275    0.00000
   10693.234    8.8599     0.0235(15)   428534.     0.02276    0.00000
   10714.641    8.8777     0.0242(16)   369825.     0.02278    0.00000
   10736.078    8.8955     0.0233(16)   401064.     0.02279    0.00000
   10757.578    8.9133     0.0224(15)   441620.     0.02281    0.00000
   10779.125    8.9312     0.0211(14)   483810.     0.02282    0.00000
   10800.703    8.9492     0.0243(16)   394039.     0.02283    0.00000
   10822.328    8.9671     0.0219(15)   430664.     0.02285    0.00000
   10844.0      8.9852     0.0211(15)   445300.     0.02286    0.00000
   10865.703    9.0032     0.0244(16)   396307.     0.02288    0.00000
   10887.453    9.0213     0.0234(16)   405614.     0.02289    0.00000
   10909.25     9.0394     0.0231(16)   383995.     0.02290    0.00000
   10931.094    9.0575     0.0231(16)   375457.     0.02292    0.00000
   10952.984    9.0757     0.0225(16)   396258.     0.02293    0.00000
   10974.906    9.0939     0.0239(16)   371338.     0.02294    0.00000
   10996.875    9.1122     0.0228(16)   392854.     0.02296    0.00000
   11018.891    9.1305     0.0224(16)   410168.     0.02297    0.00000
   11040.953    9.1488     0.0210(14)   476693.     0.02298    0.00000
   11063.063    9.1672     0.0230(16)   373551.     0.02299    0.00000
   11085.203    9.1856     0.0214(16)   389525.     0.02300    0.00000
   11107.391    9.2040     0.0223(16)   405311.     0.02301    0.00000
   11129.625    9.2225     0.0244(17)   350174.     0.02302    0.00000
   11151.906    9.2410     0.0224(16)   390625.     0.02303    0.00000
   11174.234    9.2596     0.0229(17)   349405.     0.02304    0.00000
   11196.609    9.2782     0.0242(17)   335210.     0.02305    0.00000
   11219.031    9.2968     0.0228(17)   339647.     0.02306    0.00000
   11241.484    9.3155     0.0256(18)   307785.     0.02307    0.00000
   11263.984    9.3342     0.0221(16)   405102.     0.02307    0.00000
   11286.531    9.3529     0.0210(15)   430187.     0.02308    0.00000
   11309.125    9.3717     0.0234(17)   360159.     0.02308    0.00000
   11331.766    9.3905     0.0231(16)   372931.     0.02308    0.00000
   11354.453    9.4094     0.0232(17)   346413.     0.02309    0.00000
   11377.188    9.4283     0.0211(15)   432325.     0.02309    0.00000
   11399.969    9.4472     0.0219(15)   427263.     0.02309    0.00000
   11422.797    9.4662     0.0223(16)   369113.     0.02308    0.00000
   11445.656    9.4852     0.0243(18)   293831.     0.02308    0.00000
   11468.563    9.5042     0.0260(20)   262142.     0.02308    0.00000
   11491.531    9.5233     0.0246(19)   264753.     0.02307    0.00000
   11514.547    9.5425     0.0237(19)   281615.     0.02306    0.00000
   11537.594    9.5616     0.0220(16)   384350.     0.02305    0.00000
   11560.688    9.5808     0.0211(18)   316577.     0.02304    0.00000
   11583.844    9.6001     0.0220(19)   289437.     0.02303    0.00000
   11607.031    9.6194     0.0236(18)   326179.     0.02301    0.00000
   11630.266    9.6387     0.0228(18)   316236.     0.02300    0.00000
   11653.563    9.6581     0.0223(17)   362874.     0.02298    0.00000
   11676.891    9.6775     0.0252(20)   260921.     0.02296    0.00000
   11700.266    9.6969     0.0236(17)   334006.     0.02293    0.00000
   11723.688    9.7164     0.0224(18)   318953.     0.02291    0.00000
   11747.156    9.7359     0.0207(17)   350392.     0.02288    0.00000
   11770.672    9.7554     0.0192(16)   411110.     0.02285    0.00000
   11794.234    9.7750     0.0218(19)   279849.     0.02282    0.00000
   11817.844    9.7947     0.0239(18)   307556.     0.02278    0.00000
   11841.5      9.8143     0.0250(19)   287206.     0.02274    0.00000
   11865.219    9.8341     0.0257(19)   281042.     0.02270    0.00000
   11888.969    9.8538     0.0230(18)   294021.     0.02265    0.00000
   11912.766    9.8736     0.0249(20)   245730.     0.02261    0.00000
   11936.625    9.8934     0.0256(22)   208393.     0.02255    0.00000
   11960.516    9.9133     0.0238(19)   288604.     0.02250    0.00000
   11984.453    9.9332     0.0227(19)   277503.     0.02244    0.00000
   12008.453    9.9532     0.0219(19)    0.0        0.02238  ?        
   12032.5      9.9732     0.0262(23)    0.0        0.02231  ?        
   12056.578    9.9932     0.0252(21)    0.0        0.02224  ?        
   12080.719   10.0133     0.0270(21)    0.0        0.02217  ?        
   12104.906   10.0334     0.0249(19)    0.0        0.02209  ?        
   12129.141   10.0536     0.0214(18)    0.0        0.02201  ?        
   12153.422   10.0738     0.0218(20)    0.0        0.02192  ?        
   12177.75    10.0940     0.0258(22)    0.0        0.02183  ?        
   12202.141   10.1143     0.0255(24)    0.0        0.02173  ?        
   12226.563   10.1346     0.0225(18)    0.0        0.02163  ?        
   12251.031   10.1550     0.0245(26)    0.0        0.02152  ?        
   12275.563   10.1754     0.0228(22)    0.0        0.02141  ?        
   12300.141   10.1958     0.0240(24)    0.0        0.02130  ?        
   12324.766   10.2163     0.0242(22)    0.0        0.02117  ?        
   12349.438   10.2368     0.0229(19)    0.0        0.02105  ?        
   12374.156   10.2574     0.0233(21)    0.0        0.02091  ?        
   12398.938   10.2780     0.0241(22)    0.0        0.02077  ?        
   12423.766   10.2987     0.0217(19)    0.0        0.02063  ?        
   12448.641   10.3194     0.0225(18)    0.0        0.02047  ?        
   12473.563   10.3401     0.0262(21)    0.0        0.02031  ?        
   12498.531   10.3609     0.0242(22)    0.0        0.02015  ?        
   12523.547   10.3817     0.0247(22)    0.0        0.01998  ?        
   12548.609   10.4025     0.0267(27)    0.0        0.01980  ?        
   12573.734   10.4234     0.0244(21)    0.0        0.01961  ?        
   12598.922   10.4444     0.0213(18)    0.0        0.01942  ?        
   12624.141   10.4654     0.0216(18)    0.0        0.01922  ?        
   12649.406   10.4864     0.0235(19)    0.0        0.01901  ?        
   12674.734   10.5075     0.0195(17)    0.0        0.01879  ?        
   12700.109   10.5286     0.0233(21)    0.0        0.01857  ?        
   12725.531   10.5498     0.0233(22)    0.0        0.01833  ?        
   12751.016   10.5710     0.0226(20)    0.0        0.01809  ?        
   12776.547   10.5922     0.0206(20)    0.0        0.01784  ?        
   12802.125   10.6135     0.0218(19)    0.0        0.01758  ?        
   12827.766   10.6348     0.0230(21)    0.0        0.01731  ?        
   12853.438   10.6562     0.0247(22)    0.0        0.01704  ?        
   12879.156   10.6776     0.0241(21)    0.0        0.01675  ?        
   12904.938   10.6991     0.0204(18)    0.0        0.01645  ?        
   12930.781   10.7206     0.0214(19)    0.0        0.01615  ?        
   12956.672   10.7421     0.0235(22)    0.0        0.01583  ?        
   12982.609   10.7637     0.0242(24)    0.0        0.01551  ?        
   13008.609   10.7854     0.0260(24)    0.0        0.01517  ?        
   13034.656   10.8070     0.0240(20)    0.0        0.01482  ?        
   13060.75    10.8288     0.0221(18)    0.0        0.01446  ?        
   13086.891   10.8505     0.0213(19)    0.0        0.01410  ?        
   13113.078   10.8723     0.0242(29)    0.0        0.01372  ?        
   13139.328   10.8942     0.0260(29)    0.0        0.01332  ?        
   13165.641   10.9161     0.0218(22)    0.0        0.01292  ?        
   13192.0     10.9380     0.0238(21)    0.0        0.01251  ?        
   13218.406   10.9600     0.0234(21)    0.0        0.01208  ?        
   13244.875   10.9820     0.0206(19)    0.0        0.01164  ?        
   13271.391   11.0041     0.0234(21)    0.0        0.01119  ?        
   13297.953   11.0262     0.0225(19)    0.0        0.01073  ?        
   13324.578   11.0484     0.0253(25)    0.0        0.01025  ?        
   13351.266   11.0706     0.0234(20)    0.0        0.00976  ?        
   13378.0     11.0929     0.0253(22)    0.0        0.00926  ?        
   13404.781   11.1152     0.0240(21)    0.0        0.00874  ?        
   13431.609   11.1375     0.0212(20)    0.0        0.00821  ?        
   13458.5     11.1599     0.0218(21)    0.0        0.00767  ?        
   13485.453   11.1823     0.0218(19)    0.0        0.00711  ?        
   13512.453   11.2048     0.0245(24)    0.0        0.00654  ?        
   13539.5     11.2274     0.0218(20)    0.0        0.00596  ?        
   13566.594   11.2499     0.0260(23)    0.0        0.00536  ?        
   13593.75    11.2725     0.0268(24)    0.0        0.00474  ?        
   13620.969   11.2952     0.0239(30)    0.0        0.00412  ?        
   13648.25    11.3179     0.0252(23)    0.0        0.00347  ?        
   13675.578   11.3407     0.0219(20)    0.0        0.00281  ?        
   13702.953   11.3635     0.0226(20)    0.0        0.00214  ?        
   13730.391   11.3863     0.0220(19)    0.0        0.00145  ?        
   13757.875   11.4092     0.0197(17)    0.0        0.00074  ?        
   13785.406   11.4321     0.0215(19)    0.0        0.00002  ?        
   13813.0     11.4551     0.0233(20)    0.0       -0.00071  ?        
   13840.656   11.4782     0.0211(22)    0.0       -0.00147  ?        
   13868.375   11.5013     0.0226(22)    0.0       -0.00223  ?        
   13896.141   11.5244     0.0224(20)    0.0       -0.00302  ?        
   13923.953   11.5475     0.0234(20)    0.0       -0.00382  ?        
   13951.828   11.5708     0.0221(21)    0.0       -0.00464  ?        
   13979.766   11.5940     0.0225(22)    0.0       -0.00547  ?        
   14007.75    11.6174     0.0255(25)    0.0       -0.00632  ?        
   14035.797   11.6407     0.0236(23)    0.0       -0.00719  ?        
   14063.906   11.6641     0.0247(24)    0.0       -0.00807  ?        
   14092.063   11.6876     0.0226(21)    0.0       -0.00897  ?        
   14120.266   11.7111     0.0224(22)    0.0       -0.00989  ?        
   14148.531   11.7346     0.0230(21)    0.0       -0.01082  ?        
   14176.859   11.7582     0.0237(23)    0.0       -0.01178  ?        
   14205.234   11.7819     0.0237(22)    0.0       -0.01274  ?        
   14233.672   11.8056     0.0218(23)    0.0       -0.01373  ?        
   14262.172   11.8293     0.0213(26)    0.0       -0.01473  ?        
   14290.734   11.8531     0.0244(30)    0.0       -0.01575  ?        
   14319.344   11.8770     0.0264(27)    0.0       -0.01679  ?        
   14348.0     11.9008     0.0217(22)    0.0       -0.01784  ?        
   14376.719   11.9248     0.0213(22)    0.0       -0.01891  ?        
   14405.5     11.9488     0.0226(24)    0.0       -0.01999  ?        
   14434.344   11.9728     0.0224(22)    0.0       -0.02110  ?        
   14463.25    11.9969     0.0239(23)    0.0       -0.02221  ?        
   14492.203   12.0210     0.0227(24)    0.0       -0.02335  ?        
   14521.219   12.0452     0.0250(24)    0.0       -0.02450  ?        
   14550.297   12.0694     0.0216(21)    0.0       -0.02567  ?        
   14579.422   12.0937     0.0231(23)    0.0       -0.02685  ?        
   14608.609   12.1180     0.0252(24)    0.0       -0.02805  ?        
   14637.859   12.1424     0.0240(30)    0.0       -0.02927  ?        
   14667.156   12.1668     0.0251(28)    0.0       -0.03049  ?        
   14696.516   12.1913     0.0230(24)    0.0       -0.03174  ?        
   14725.938   12.2158     0.0206(21)    0.0       -0.03300  ?        
   14755.422   12.2404     0.0226(23)    0.0       -0.03427  ?        
   14784.969   12.2650     0.0209(21)    0.0       -0.03556  ?        
   14814.563   12.2897     0.0225(23)    0.0       -0.03686  ?        
   14844.219   12.3144     0.0222(22)    0.0       -0.03818  ?        
   14873.938   12.3392     0.0225(23)    0.0       -0.03950  ?        
   14903.719   12.3640     0.0235(25)    0.0       -0.04084  ?        
   14933.563   12.3889     0.0271(28)    0.0       -0.04220  ?        
   14963.453   12.4138     0.0246(25)    0.0       -0.04356  ?        
   14993.406   12.4388     0.0228(22)    0.0       -0.04493  ?        
   15023.422   12.4638     0.0227(24)    0.0       -0.04632  ?        
   15053.5     12.4889     0.0237(26)    0.0       -0.04772  ?        
   15083.641   12.5140     0.0202(21)    0.0       -0.04912  ?        
   15113.844   12.5392     0.0196(19)    0.0       -0.05053  ?        
   15144.109   12.5644     0.0237(23)    0.0       -0.05195  ?        
   15174.422   12.5897     0.0225(25)    0.0       -0.05338  ?        
   15204.797   12.6150     0.0228(23)    0.0       -0.05482  ?        
   15235.234   12.6404     0.0223(22)    0.0       -0.05626  ?        
   15265.734   12.6658     0.0221(21)    0.0       -0.05770  ?        
   15296.297   12.6913     0.0224(25)    0.0       -0.05915  ?        
   15326.922   12.7169     0.0211(21)    0.0       -0.06061  ?        
   15357.609   12.7425     0.0248(26)    0.0       -0.06206  ?        
   15388.359   12.7681     0.0244(25)    0.0       -0.06352  ?        
   15419.172   12.7938     0.0231(26)    0.0       -0.06498  ?        
   15450.031   12.8195     0.0201(21)    0.0       -0.06643  ?        
   15480.953   12.8453     0.0208(22)    0.0       -0.06789  ?        
   15511.953   12.8712     0.0233(24)    0.0       -0.06934  ?        
   15543.016   12.8971     0.0226(26)    0.0       -0.07079  ?        
   15574.125   12.9230     0.0201(22)    0.0       -0.07223  ?        
   15605.297   12.9490     0.0251(26)    0.0       -0.07366  ?        
   15636.547   12.9751     0.0214(24)    0.0       -0.07509  ?        
   15667.859   13.0012     0.0223(32)    0.0       -0.07651  ?        
   15699.219   13.0274     0.0224(27)    0.0       -0.07791  ?        
   15730.641   13.0536     0.0194(22)    0.0       -0.07931  ?        
   15762.141   13.0799     0.0207(24)    0.0       -0.08069  ?        
   15793.703   13.1062     0.0205(25)    0.0       -0.08205  ?        
   15825.313   13.1326     0.0259(28)    0.0       -0.08340  ?        
   15856.984   13.1590     0.029(4)      0.0       -0.0847   ?        
   15888.734   13.1855     0.0227(27)    0.0       -0.08603  ?        
   15920.547   13.2120     0.0229(27)    0.0       -0.08732  ?        
   15952.422   13.2386     0.0225(25)    0.0       -0.08858  ?        
   15984.359   13.2653     0.0217(24)    0.0       -0.08981  ?        
   16016.359   13.2920     0.0202(23)    0.0       -0.09102  ?        
   16048.422   13.3187     0.0211(21)    0.0       -0.09219  ?        
   16080.547   13.3455     0.0217(23)    0.0       -0.09333  ?        
   16112.75    13.3724     0.0196(24)    0.0       -0.09444  ?        
   16145.016   13.3993     0.0243(28)    0.0       -0.09551  ?        
   16177.328   13.4263     0.0224(25)    0.0       -0.09654  ?        
   16209.719   13.4533     0.0226(25)    0.0       -0.09753  ?        
   16242.172   13.4804     0.0266(28)    0.0       -0.09847  ?        
   16274.688   13.5075     0.0229(26)    0.0       -0.09936  ?        
   16307.266   13.5347     0.0238(27)    0.0       -0.10021  ?        
   16339.906   13.5620     0.0230(25)    0.0       -0.10100  ?        
   16372.625   13.5893     0.0229(24)    0.0       -0.10174  ?        
   16405.406   13.6166     0.0239(26)    0.0       -0.10241  ?        
   16438.25    13.6441     0.0245(27)    0.0       -0.10303  ?        
   16471.156   13.6715     0.0195(23)    0.0       -0.10358  ?        
   16504.125   13.6990     0.0184(20)    0.0       -0.10406  ?        
   16537.172   13.7266     0.0242(29)    0.0       -0.10448  ?        
   16570.281   13.7543     0.027(4)      0.0       -0.1048   ?        
   16603.453   13.7820     0.0214(24)    0.0       -0.10507  ?        
   16636.703   13.8097     0.0203(21)    0.0       -0.10525  ?        
   16670.016   13.8375     0.0194(22)    0.0       -0.10535  ?        
   16703.391   13.8654     0.0232(25)    0.0       -0.10535  ?        
   16736.828   13.8933     0.0225(25)    0.0       -0.10526  ?        
   16770.328   13.9213     0.0200(23)    0.0       -0.10508  ?        
   16803.891   13.9493     0.0213(24)    0.0       -0.10479  ?        
   16837.531   13.9774     0.0206(22)    0.0       -0.10440  ?        
   16871.25    14.0055     0.0223(23)    0.0       -0.10390  ?        
   16905.031   14.0337     0.0204(23)    0.0       -0.10329  ?        
   16938.875   14.0620     0.0231(26)    0.0       -0.10256  ?        
   16972.781   14.0903     0.0230(33)    0.0       -0.10171  ?        
   17006.766   14.1187     0.0239(33)    0.0       -0.10073  ?        
   17040.813   14.1471     0.0245(27)    0.0       -0.09963  ?        
   17074.922   14.1756     0.0235(27)    0.0       -0.09838  ?        
   17109.109   14.2042     0.0260(31)    0.0       -0.09699  ?        
   17143.359   14.2328     0.0192(21)    0.0       -0.09546  ?        
   17177.672   14.2614     0.0273(33)    0.0       -0.09378  ?        
   17212.063   14.2901     0.0250(30)    0.0       -0.09194  ?        
   17246.531   14.3189     0.0248(30)    0.0       -0.08994  ?        
   17281.063   14.3478     0.0270(30)    0.0       -0.08777  ?        
   17315.656   14.3767     0.0216(26)    0.0       -0.08543  ?        
   17350.313   14.4056     0.0197(27)    0.0       -0.08291  ?        
   17385.047   14.4346     0.0223(26)    0.0       -0.08021  ?        
   17419.859   14.4637     0.0237(26)    0.0       -0.07731  ?        
   17454.734   14.4928     0.0182(22)    0.0       -0.07422  ?        
   17489.672   14.5220     0.0204(23)    0.0       -0.07093  ?        
   17524.688   14.5513     0.0234(29)    0.0       -0.06743  ?        
   17559.781   14.5806     0.0234(28)    0.0       -0.06371  ?        
   17594.938   14.6100     0.0179(23)    0.0       -0.05977  ?        
   17630.156   14.6394     0.024(4)      0.0       -0.0556   ?        
   17665.453   14.6689     0.0230(31)    0.0       -0.05121  ?        
   17700.828   14.6984     0.029(5)      0.0       -0.0466   ?        
   17736.266   14.7281     0.0192(22)    0.0       -0.04168  ?        
   17771.766   14.7577     0.0199(24)    0.0       -0.03653  ?        
   17807.344   14.7874     0.0236(32)    0.0       -0.03113  ?        
   17843.0     14.8172     0.0198(24)    0.0       -0.02545  ?        
   17878.719   14.8471     0.0195(27)    0.0       -0.01950  ?        
   17914.516   14.8770     0.0215(26)    0.0       -0.01326  ?        
   17950.375   14.9070     0.0221(33)    0.0       -0.00673  ?        
   17986.297   14.9370     0.0233(33)    0.0        0.00010  ?        
   18022.313   14.9671     0.0240(28)    0.0        0.00724  ?        
   18058.406   14.9973     0.0204(27)    0.0        0.01469  ?        
   18094.563   15.0275     0.0252(31)    0.0        0.02247  ?        
   18130.781   15.0577     0.0213(30)    0.0        0.03057  ?        
   18167.078   15.0881     0.0200(25)    0.0        0.03902  ?        
   18203.453   15.1185     0.0234(28)    0.0        0.04782  ?        
   18239.891   15.1489     0.0218(30)    0.0        0.05697  ?        
   18276.406   15.1795     0.026(4)      0.0        0.0665   ?        
   18313.0     15.2101     0.027(4)      0.0        0.0764   ?        
   18349.656   15.2407     0.0244(29)    0.0        0.08664  ?        
   18386.391   15.2714     0.0244(26)    0.0        0.09730  ?        
   18423.203   15.3022     0.0204(25)    0.0        0.10836  ?        
   18460.078   15.3330     0.0222(30)    0.0        0.11982  ?        
   18497.031   15.3639     0.0226(30)    0.0        0.13170  ?        
   18534.063   15.3949     0.0252(30)    0.0        0.14401  ?        
   18571.172   15.4259     0.024(4)      0.0        0.1568   ?        
   18608.359   15.4570     0.0197(32)    0.0        0.16994  ?        
   18645.609   15.4881     0.021(4)      0.0        0.1836   ?        
   18682.938   15.5194     0.025(4)      0.0        0.1977   ?        
   18720.344   15.5506     0.0209(27)    0.0        0.21225  ?        
   18757.828   15.5820     0.0208(27)    0.0        0.22731  ?        
   18795.375   15.6134     0.0228(30)    0.0        0.24285  ?        
   18833.0     15.6448     0.0185(27)    0.0        0.25888  ?        
   18870.719   15.6764     0.0181(24)    0.0        0.27544  ?        
   18908.5     15.7080     0.0213(31)    0.0        0.29250  ?        
   18946.344   15.7396     0.023(4)      0.0        0.3101   ?        
   18984.266   15.7714     0.0210(31)    0.0        0.32820  ?        
   19022.281   15.8032     0.0227(32)    0.0        0.34687  ?        
   19060.375   15.8350     0.0185(26)    0.0        0.36610  ?        
   19098.531   15.8669     0.0202(30)    0.0        0.38588  ?        
   19136.766   15.8989     0.0211(29)    0.0        0.40623  ?        
   19175.078   15.9310     0.0212(28)    0.0        0.42716  ?        
   19213.453   15.9631     0.0197(27)    0.0        0.44867  ?        
   19251.922   15.9952     0.0184(27)    0.0        0.47079  ?        
   19290.469   16.0275     0.0197(33)    0.0        0.49352  ?        
   19329.078   16.0598     0.026(5)      0.0        0.5168   ?        
   19367.781   16.0922     0.0197(28)    0.0        0.54080  ?        
   19406.563   16.1246     0.0206(27)    0.0        0.56540  ?        
   19445.406   16.1571     0.0186(26)    0.0        0.59061  ?        
   19484.328   16.1897     0.0230(30)    0.0        0.61648  ?        
   19523.344   16.2223     0.0201(28)    0.0        0.64300  ?        
   19562.438   16.2551     0.0185(26)    0.0        0.67019  ?        
   19601.594   16.2878     0.0190(28)    0.0        0.69803  ?        
   19640.828   16.3207     0.023(4)      0.0        0.7265   ?        
   19680.156   16.3536     0.0184(27)    0.0        0.75575  ?        
   19719.563   16.3865     0.027(4)      0.0        0.7856   ?        
   19759.031   16.4196     0.025(4)      0.0        0.8162   ?        
   19798.594   16.4527     0.0245(32)    0.0        0.84748  ?        
   19838.234   16.4859     0.028(5)      0.0        0.8795   ?        
   19877.938   16.5191     0.021(4)      0.0        0.9121   ?        
   19917.734   16.5524     0.0199(28)    0.0        0.94552  ?        
   19957.609   16.5858     0.0196(31)    0.0        0.97962  ?        
   19997.563   16.6192     0.0216(28)    0.0        1.01443  ?        
   20037.609   16.6528     0.0161(26)    0.0        1.04998  ?        
   20077.734   16.6863     0.0186(29)    0.0        1.08625  ?        
   20117.922   16.7200     0.0202(29)    0.0        1.12322  ?        
   20158.188   16.7537     0.027(4)      0.0        1.1609   ?        
   20198.547   16.7875     0.025(4)      0.0        1.1993   ?        
   20238.984   16.8213     0.0216(33)    0.0        1.23848  ?        
   20279.5     16.8553     0.0197(32)    0.0        1.27834  ?        
   20320.109   16.8893     0.0176(29)    0.0        1.31893  ?        
   20360.797   16.9233     0.020(4)      0.0        1.3602   ?        
   20401.547   16.9575     0.020(4)      0.0        1.4022   ?        
   20442.391   16.9917     0.0212(34)    0.0        1.44494  ?        
   20483.328   17.0259     0.0222(31)    0.0        1.48837  ?        
   20524.328   17.0603     0.0186(29)    0.0        1.53246  ?        
   20565.406   17.0947     0.0138(24)    0.0        1.57724  ?        
   20606.578   17.1292     0.0173(30)    0.0        1.62271  ?        
   20647.844   17.1637     0.024(4)      0.0        1.6689   ?        
   20689.188   17.1983     0.022(4)      0.0        1.7157   ?        
   20730.609   17.2330     0.0192(32)    0.0        1.76308  ?        
   20772.109   17.2678     0.019(4)      0.0        1.8111   ?        
   20813.688   17.3026     0.0225(34)    0.0        1.85980  ?        
   20855.359   17.3375     0.024(4)      0.0        1.9091   ?        
   20897.109   17.3725     0.0180(33)    0.0        1.95890  ?        
   20938.938   17.4075     0.019(4)      0.0        2.0093   ?        
   20980.859   17.4427     0.024(5)      0.0        2.0602   ?        
   21022.875   17.4779     0.0200(33)    0.0        2.11169  ?        
   21064.969   17.5131     0.0218(34)    0.0        2.16363  ?        
   21107.141   17.5485     0.022(4)      0.0        2.2160   ?        
   21149.391   17.5839     0.022(4)      0.0        2.2688   ?        
   21191.719   17.6193     0.021(4)      0.0        2.3220   ?        
   21234.141   17.6549     0.0174(31)    0.0        2.37561  ?        
   21276.656   17.6905     0.0178(30)    0.0        2.42954  ?        
   21319.266   17.7262     0.025(4)      0.0        2.4838   ?        
   21361.953   17.7620     0.021(4)      0.0        2.5382   ?        
   21404.719   17.7978     0.0184(34)    0.0        2.59289  ?        
   21447.563   17.8337     0.0177(33)    0.0        2.64772  ?        
   21490.5     17.8697     0.024(4)      0.0        2.7027   ?        
   21533.531   17.9058     0.022(4)      0.0        2.7577   ?        
   21576.641   17.9419     0.022(4)      0.0        2.8127   ?        
   21619.828   17.9781     0.020(4)      0.0        2.8677   ?        
   21663.109   18.0144     0.024(4)      0.0        2.9225   ?        
   21706.484   18.0508     0.023(4)      0.0        2.9772   ?        
   21749.938   18.0872     0.028(5)      0.0        3.0317   ?        
   21793.484   18.1237     0.023(4)      0.0        3.0859   ?        
   21837.109   18.1603     0.023(4)      0.0        3.1396   ?        
   21880.828   18.1969     0.020(4)      0.0        3.1929   ?        
   21924.641   18.2336     0.020(4)      0.0        3.2457   ?        
   21968.531   18.2704     0.021(4)      0.0        3.2979   ?        
   22012.516   18.3073     0.0206(34)    0.0        3.34929  ?        
   22056.578   18.3443     0.024(4)      0.0        3.3999   ?        
   22100.734   18.3813     0.027(5)      0.0        3.4496   ?        
   22144.984   18.4184     0.023(5)      0.0        3.4983   ?        
   22189.313   18.4556     0.022(5)      0.0        3.5458   ?        
   22233.734   18.4928     0.022(4)      0.0        3.5922   ?        
   22278.25    18.5301     0.019(4)      0.0        3.6371   ?        
   22322.859   18.5676     0.022(4)      0.0        3.6806   ?        
   22367.547   18.6050     0.022(4)      0.0        3.7225   ?        
   22412.313   18.6426     0.021(4)      0.0        3.7626   ?        
   22457.188   18.6802     0.0172(34)    0.0        3.80078  ?        
   22502.156   18.7179     0.020(4)      0.0        3.8370   ?        
   22547.203   18.7557     0.0141(31)    0.0        3.87093  ?        
   22592.344   18.7936     0.0177(35)    0.0        3.90254  ?        
   22637.578   18.8315     0.020(4)      0.0        3.9316   ?        
   22682.891   18.8696     0.025(5)      0.0        3.9580   ?        
   22728.297   18.9076     0.025(5)      0.0        3.9815   ?        
   22773.797   18.9458     0.028(5)      0.0        4.0019   ?        
   22819.391   18.9841     0.032(5)      0.0        4.0190   ?        
   22865.078   19.0224     0.024(4)      0.0        4.0326   ?        
   22910.859   19.0608     0.019(5)      0.0        4.0425   ?        
   22956.734   19.0993     0.026(6)      0.0        4.0485   ?        
   23002.688   19.1379     0.022(4)      0.0        4.0503   ?        
   23048.734   19.1765     0.025(5)      0.0        4.0477   ?        
   23094.875   19.2152     0.027(6)      0.0        4.0404   ?        
   23141.109   19.2540     0.025(5)      0.0        4.0282   ?        
   23187.438   19.2929     0.018(4)      0.0        4.0108   ?        
   23233.859   19.3319     0.035(9)      0.0        3.9879   ?        
   23280.375   19.3709     0.021(6)      0.0        3.9592   ?        
   23326.984   19.4100     0.019(4)      0.0        3.9244   ?        
   23373.688   19.4492     0.021(4)      0.0        3.8831   ?        
   23420.484   19.4885     0.021(4)      0.0        3.8352   ?        
   23467.375   19.5279     0.023(4)      0.0        3.7801   ?        
   23514.359   19.5673     0.020(4)      0.0        3.7176   ?        
   23561.438   19.6069     0.022(5)      0.0        3.6473   ?        
   23608.609   19.6465     0.019(4)      0.0        3.5687   ?        
   23655.875   19.6861     0.026(6)      0.0        3.4815   ?        
   23703.234   19.7259     0.018(4)      0.0        3.3854   ?        
   23750.688   19.7657     0.016(4)      0.0        3.2797   ?        
   23798.234   19.8057     0.017(6)      0.0        3.1642   ?        
   23845.875   19.8457     0.027(8)      0.0        3.0383   ?        
   23893.609   19.8858     0.019(4)      0.0        2.9016   ?        
   23941.438   19.9259     0.018(4)      0.0        2.7535   ?        
   23989.375   19.9662     0.015(4)      0.0        2.5935   ?        
   24037.406   20.0065     0.020(5)      0.0        2.4212   ?        
   24085.516   20.0469     0.020(5)      0.0        2.2360   ?        
_pd_meas_number_of_points              1148
_pd_proc_number_of_points              1148

loop_
      _pd_refln_index_h
      _pd_refln_index_k
      _pd_refln_index_l
      _pd_refln_phase_id
      _refln_observed_status
      _refln_F_squared_calc
      _refln_F_squared_meas
      _refln_phase_calc
      _pd_refln_i100_meas
_reflns_number_observed                0
_reflns_limit_h_min                    0
_reflns_limit_h_max                    2
_reflns_limit_k_min                    0
_reflns_limit_k_max                    6
_reflns_limit_l_min                    -4
_reflns_limit_l_max                    5
_reflns_d_resolution_high              9999.000
_reflns_d_resolution_low               0.000
data_BL2810_p_02

_pd_block_id
     Mar 14 12:14:49 |POWSET_02||  rotax                                 
#_pd_meas_datetime_initiated           ?
#_pd_meas_info_author_name             ?
#_pd_meas_info_author_email            ?
#_pd_meas_info_author_address          ?
#_pd_meas_info_author_telephone        ?
#_diffrn_ambient_temperature           ?
#_diffrn_ambient_environment           ?
#_diffrn_ambient_pressure              ?
#_diffrn_radiation_source              ?
#_diffrn_radiation_detector            ?
loop_  _pd_phase_id
_pd_phase_block_id      Mar 14 12:14:49 |PHASE_1||
_pd_phase_block_id      Mar 14 12:14:49 |PHASE_2||
_pd_instr_radiation_probe              neutron
_pd_proc_ls_prof_R_factor              0.0311
_pd_proc_ls_prof_wR_factor             0.0302
_pd_proc_ls_prof_wR_expected           0.0206
_pd_proc_info_datetime                 "Mar 14 12:14:49 2003"
_pd_calc_method                        "Rietveld Refinement"

loop_
      _pd_meas_time_of_flight
      _pd_proc_d_spacing
      _pd_meas_intensity_total
      _pd_proc_ls_weight
      _pd_proc_intensity_calc_bkg
      _pd_calc_intensity_total
   2705.453     0.79946    0.1185(28)    0.0       0.09242  ?        
   2710.875     0.80106    0.1212(28)   124669.    0.09230    0.00000
   2716.313     0.80267    0.1236(29)   123065.    0.09218    0.00000
   2721.75      0.80427    0.1283(29)   118436.    0.09207    0.00000
   2727.203     0.80588    0.1233(29)   122893.    0.09195    0.00000
   2732.656     0.80749    0.1280(29)   118436.    0.09183    0.00000
   2738.125     0.80911    0.1287(29)   118164.    0.09172    0.00000
   2743.609     0.81072    0.1290(29)   118299.    0.09160    0.00000
   2749.094     0.81234    0.1231(28)   124301.    0.09149    0.00000
   2754.594     0.81397    0.1262(29)   121175.    0.09138    0.00000
   2760.109     0.81559    0.1283(29)   121019.    0.09126    0.00000
   2765.641     0.81723    0.1320(29)   118031.    0.09115    0.00000
   2771.172     0.81886    0.1333(29)   116578.    0.09104    0.00000
   2776.719     0.82049    0.1421(30)   109628.    0.09093    0.00000
   2782.281     0.82214    0.1450(30)   108334.    0.09082    0.00000
   2787.859     0.82378    0.1440(30)   108270.    0.09071    0.00000
   2793.438     0.82543    0.1445(30)   109628.    0.09060    0.00000
   2799.031     0.82708    0.1493(31)   106952.    0.09049    0.00000
   2804.641     0.82873    0.1481(31)   107007.    0.09038    0.00000
   2810.25      0.83039    0.1472(31)   106952.    0.09027    0.00000
   2815.875     0.83205    0.1448(30)   110783.    0.09017    0.00000
   2821.516     0.83371    0.1388(30)   114716.    0.09006    0.00000
   2827.172     0.83538    0.1408(30)   113354.    0.08996    0.00000
   2832.828     0.83705    0.1341(29)   120415.    0.08985    0.00000
   2838.5       0.83873    0.1252(28)   129577.    0.08975    0.00000
   2844.188     0.84040    0.1213(27)   132921.    0.08964    0.00000
   2849.875     0.84208    0.1171(27)   138185.    0.08954    0.00000
   2855.578     0.84377    0.1190(27)   136125.    0.08943    0.00000
   2861.297     0.84545    0.1261(28)   129362.    0.08933    0.00000
   2867.016     0.84714    0.1241(28)   131005.    0.08923    0.00000
   2872.75      0.84883    0.1265(28)   130780.    0.08913    0.00000
   2878.516     0.85053    0.1267(28)   130558.    0.08903    0.00000
   2884.281     0.85224    0.1248(28)   130780.    0.08893    0.00000
   2890.047     0.85394    0.1259(28)   130558.    0.08883    0.00000
   2895.828     0.85564    0.1233(27)   133884.    0.08873    0.00000
   2901.625     0.85735    0.1210(27)   137065.    0.08863    0.00000
   2907.438     0.85907    0.1236(27)   135336.    0.08853    0.00000
   2913.266     0.86079    0.1216(27)   138543.    0.08844    0.00000
   2919.094     0.86251    0.1236(27)   135336.    0.08834    0.00000
   2924.938     0.86423    0.1223(27)   136528.    0.08824    0.00000
   2930.797     0.86596    0.1214(27)   136795.    0.08815    0.00000
   2936.656     0.86769    0.1145(26)   147446.    0.08805    0.00000
   2942.531     0.86943    0.1159(26)   143665.    0.08796    0.00000
   2948.422     0.87116    0.1238(27)   136265.    0.08786    0.00000
   2954.328     0.87291    0.1273(27)   132921.    0.08777    0.00000
   2960.25      0.87465    0.1327(28)   127936.    0.08767    0.00000
   2966.188     0.87641    0.1406(29)   120563.    0.08758    0.00000
   2972.125     0.87816    0.1462(29)   116442.    0.08749    0.00000
   2978.063     0.87991    0.1507(30)   112528.    0.08740    0.00000
   2984.016     0.88167    0.1476(29)   115012.    0.08731    0.00000
   2990.0       0.88343    0.1399(29)   121687.    0.08722    0.00000
   2995.984     0.88520    0.1315(28)   129286.    0.08713    0.00000
   3001.984     0.88697    0.1207(27)   142094.    0.08704    0.00000
   3008.0       0.88875    0.1220(26)   142399.    0.08695    0.00000
   3014.016     0.89052    0.1196(26)   143887.    0.08686    0.00000
   3020.047     0.89230    0.1195(27)   142094.    0.08677    0.00000
   3026.094     0.89408    0.1195(26)   143570.    0.08668    0.00000
   3032.156     0.89587    0.1184(26)   151027.    0.08660    0.00000
   3038.219     0.89766    0.1160(27)   141792.    0.08651    0.00000
   3044.297     0.89946    0.1195(27)   139764.    0.08642    0.00000
   3050.406     0.90126    0.1271(25)   154157.    0.08634    0.00000
   3056.516     0.90306    0.1296(28)   124073.    0.08625    0.00000
   3062.625     0.90486    0.1339(29)   122500.    0.08617    0.00000
   3068.766     0.90668    0.1341(26)   144412.    0.08608    0.00000
   3074.906     0.90849    0.1397(29)   121112.    0.08600    0.00000
   3081.063     0.91031    0.1419(29)   119488.    0.08592    0.00000
   3087.234     0.91213    0.1459(29)   122351.    0.08583    0.00000
   3093.406     0.91395    0.1430(30)   113082.    0.08575    0.00000
   3099.594     0.91577    0.1450(27)   132475.    0.08567    0.00000
   3105.797     0.91761    0.1463(29)   116752.    0.08559    0.00000
   3112.016     0.91944    0.1387(28)   123441.    0.08551    0.00000
   3118.25      0.92128    0.1294(27)   140064.    0.08543    0.00000
   3124.5       0.92312    0.1210(27)   136769.    0.08535    0.00000
   3130.75      0.92497    0.1181(25)   158475.    0.08527    0.00000
   3137.016     0.92682    0.1170(26)   144919.    0.08519    0.00000
   3143.297     0.92867    0.1177(25)   156062.    0.08511    0.00000
   3149.594     0.93053    0.1212(26)   144606.    0.08503    0.00000
   3155.906     0.93239    0.1283(27)   134693.    0.08495    0.00000
   3162.219     0.93426    0.1297(27)   139518.    0.08488    0.00000
   3168.547     0.93612    0.1315(28)   129917.    0.08480    0.00000
   3174.891     0.93799    0.1356(27)   134462.    0.08472    0.00000
   3181.25      0.93987    0.1390(28)   125434.    0.08465    0.00000
   3187.625     0.94175    0.1371(28)   131200.    0.08457    0.00000
   3194.0       0.94363    0.1335(27)   134234.    0.08450    0.00000
   3200.391     0.94552    0.1293(27)   137125.    0.08442    0.00000
   3206.797     0.94741    0.1262(27)   142007.    0.08435    0.00000
   3213.219     0.94931    0.1226(26)   143396.    0.08427    0.00000
   3219.656     0.95121    0.1166(25)   155977.    0.08420    0.00000
   3226.094     0.95311    0.1148(25)   154080.    0.08413    0.00000
   3232.547     0.95501    0.1166(25)   155580.    0.08406    0.00000
   3239.031     0.95692    0.1193(26)   151493.    0.08398    0.00000
   3245.516     0.95884    0.1338(28)   132069.    0.08391    0.00000
   3252.0       0.96075    0.1415(28)   126161.    0.08384    0.00000
   3258.516     0.96267    0.1401(28)   125996.    0.08377    0.00000
   3265.047     0.96460    0.1329(27)   136159.    0.08370    0.00000
   3271.578     0.96653    0.1293(27)   137711.    0.08363    0.00000
   3278.125     0.96846    0.1345(27)   135925.    0.08356    0.00000
   3284.688     0.97040    0.1420(28)   127205.    0.08349    0.00000
   3291.266     0.97234    0.1479(29)   121714.    0.08342    0.00000
   3297.859     0.97428    0.1471(29)   123013.    0.08335    0.00000
   3304.469     0.97623    0.1302(27)   138526.    0.08328    0.00000
   3311.078     0.97818    0.1177(25)   155895.    0.08322    0.00000
   3317.703     0.98014    0.1166(25)   155126.    0.08315    0.00000
   3324.359     0.98210    0.1193(26)   153307.    0.08308    0.00000
   3331.016     0.98407    0.1264(26)   144672.    0.08301    0.00000
   3337.672     0.98603    0.1330(27)   135239.    0.08295    0.00000
   3344.344     0.98800    0.1321(27)   138033.    0.08288    0.00000
   3351.047     0.98998    0.1279(26)   142474.    0.08282    0.00000
   3357.766     0.99196    0.1182(25)   156199.    0.08275    0.00000
   3364.484     0.99395    0.1118(25)   163818.    0.08269    0.00000
   3371.219     0.99593    0.1060(24)   173611.    0.08262    0.00000
   3377.969     0.99793    0.1001(23)   184845.    0.08256    0.00000
   3384.734     0.99992    0.1029(24)   177406.    0.08250    0.00000
   3391.516     1.00192    0.1030(24)   179630.    0.08243    0.00000
   3398.297     1.00392    0.1058(24)   173079.    0.08237    0.00000
   3405.094     1.00593    0.1087(24)   170469.    0.08231    0.00000
   3411.906     1.00794    0.1100(24)   168421.    0.08224    0.00000
   3418.734     1.00996    0.1100(24)   167940.    0.08218    0.00000
   3425.578     1.01198    0.1118(25)   165947.    0.08212    0.00000
   3432.438     1.01400    0.1160(25)   157926.    0.08206    0.00000
   3439.313     1.01603    0.1248(26)   147516.    0.08200    0.00000
   3446.203     1.01806    0.1346(27)   137866.    0.08194    0.00000
   3453.109     1.02010    0.1371(27)   134949.    0.08188    0.00000
   3460.016     1.02214    0.1390(27)   133525.    0.08182    0.00000
   3466.938     1.02418    0.1332(27)   139117.    0.08176    0.00000
   3473.891     1.02623    0.1229(26)   151567.    0.08170    0.00000
   3480.844     1.02828    0.1119(25)   166536.    0.08164    0.00000
   3487.797     1.03034    0.1076(24)   172064.    0.08158    0.00000
   3494.781     1.03240    0.1075(24)   173611.    0.08152    0.00000
   3501.781     1.03446    0.1159(25)   160000.    0.08146    0.00000
   3508.797     1.03653    0.1280(26)   144451.    0.08141    0.00000
   3515.828     1.03861    0.1388(27)   135518.    0.08135    0.00000
   3522.859     1.04068    0.1506(28)   123596.    0.08129    0.00000
   3529.906     1.04276    0.1529(29)   122240.    0.08124    0.00000
   3536.984     1.04485    0.1552(29)   120918.    0.08118    0.00000
   3544.063     1.04694    0.1554(29)   119855.    0.08112    0.00000
   3551.156     1.04904    0.1447(28)   129491.    0.08107    0.00000
   3558.266     1.05113    0.1347(27)   137938.    0.08101    0.00000
   3565.391     1.05324    0.1205(25)   156320.    0.08096    0.00000
   3572.531     1.05534    0.1123(24)   167676.    0.08090    0.00000
   3579.672     1.05745    0.1068(24)   175137.    0.08085    0.00000
   3586.844     1.05957    0.1054(24)   180877.    0.08079    0.00000
   3594.031     1.06169    0.1101(24)   172609.    0.08074    0.00000
   3601.219     1.06381    0.1198(25)   157688.    0.08068    0.00000
   3608.422     1.06594    0.1373(27)   137042.    0.08063    0.00000
   3615.656     1.06807    0.1535(28)   123863.    0.08058    0.00000
   3622.906     1.07021    0.1587(29)   119189.    0.08052    0.00000
   3630.156     1.07235    0.1523(28)   123863.    0.08047    0.00000
   3637.422     1.07449    0.1337(27)   140867.    0.08042    0.00000
   3644.703     1.07664    0.1208(25)   156594.    0.08037    0.00000
   3652.0       1.07880    0.1155(25)   165039.    0.08031    0.00000
   3659.313     1.08095    0.1234(25)   154563.    0.08026    0.00000
   3666.641     1.08312    0.1259(26)   150977.    0.08021    0.00000
   3673.984     1.08528    0.1323(26)   143295.    0.08016    0.00000
   3681.328     1.08745    0.1359(27)   140386.    0.08011    0.00000
   3688.688     1.08962    0.1387(27)   138737.    0.08006    0.00000
   3696.078     1.09180    0.1412(27)   135770.    0.08001    0.00000
   3703.484     1.09399    0.1389(27)   138513.    0.07996    0.00000
   3710.891     1.09618    0.1353(27)   141340.    0.07991    0.00000
   3718.313     1.09837    0.1298(26)   148504.    0.07986    0.00000
   3725.766     1.10057    0.1248(25)   154521.    0.07981    0.00000
   3733.234     1.10277    0.1203(25)   161239.    0.07976    0.00000
   3740.703     1.10497    0.1248(25)   154521.    0.07971    0.00000
   3748.188     1.10718    0.1303(26)   149458.    0.07966    0.00000
   3755.688     1.10940    0.1387(27)   137854.    0.07961    0.00000
   3763.203     1.11161    0.1396(27)   137639.    0.07956    0.00000
   3770.75      1.11384    0.1334(26)   145882.    0.07952    0.00000
   3778.297     1.11607    0.1274(26)   152272.    0.07947    0.00000
   3785.859     1.11830    0.1184(25)   164903.    0.07942    0.00000
   3793.453     1.12054    0.1108(24)   176017.    0.07937    0.00000
   3801.047     1.12278    0.1030(23)   188294.    0.07933    0.00000
   3808.656     1.12503    0.1063(23)   181457.    0.07928    0.00000
   3816.281     1.12728    0.1029(23)   189847.    0.07923    0.00000
   3823.922     1.12953    0.0992(23)   195857.    0.07919    0.00000
   3831.578     1.13179    0.1003(23)   195857.    0.07914    0.00000
   3839.234     1.13405    0.1061(23)   185009.    0.07909    0.00000
   3846.922     1.13632    0.1244(25)   158303.    0.07905    0.00000
   3854.625     1.13859    0.1502(28)   129045.    0.07900    0.00000
   3862.344     1.14087    0.1719(30)   113540.    0.07896    0.00000
   3870.078     1.14316    0.1801(30)   108808.    0.07891    0.00000
   3877.813     1.14544    0.1677(29)   116561.    0.07887    0.00000
   3885.578     1.14773    0.1593(28)   123969.    0.07882    0.00000
   3893.359     1.15003    0.1546(28)   127405.    0.07878    0.00000
   3901.156     1.15233    0.1566(28)   126106.    0.07873    0.00000
   3908.969     1.15463    0.1473(27)   133276.    0.07869    0.00000
   3916.797     1.15694    0.1280(25)   153811.    0.07864    0.00000
   3924.641     1.15926    0.1190(24)   166896.    0.07860    0.00000
   3932.5       1.16158    0.1067(23)   187223.    0.07856    0.00000
   3940.375     1.16390    0.1027(23)   193551.    0.07851    0.00000
   3948.266     1.16623    0.0993(22)   199524.    0.07847    0.00000
   3956.172     1.16856    0.1087(23)   182641.    0.07843    0.00000
   3964.078     1.17090    0.1152(24)   173155.    0.07838    0.00000
   3972.016     1.17324    0.1145(24)   174066.    0.07834    0.00000
   3979.969     1.17559    0.1126(24)   176378.    0.07830    0.00000
   3987.938     1.17794    0.1069(23)   189036.    0.07825    0.00000
   3995.922     1.18030    0.1087(23)   183550.    0.07821    0.00000
   4003.922     1.18266    0.1128(24)   176807.    0.07817    0.00000
   4011.938     1.18502    0.1280(25)   156847.    0.07813    0.00000
   4019.969     1.18739    0.1399(26)   143278.    0.07809    0.00000
   4028.016     1.18977    0.1563(28)   128549.    0.07804    0.00000
   4036.078     1.19215    0.1520(27)   132921.    0.07800    0.00000
   4044.172     1.19454    0.1390(26)   145756.    0.07796    0.00000
   4052.266     1.19692    0.1274(25)   158967.    0.07792    0.00000
   4060.375     1.19932    0.1151(24)   175406.    0.07788    0.00000
   4068.5       1.20172    0.1083(23)   186780.    0.07784    0.00000
   4076.641     1.20412    0.1084(23)   186233.    0.07780    0.00000
   4084.797     1.20652    0.1090(23)   186233.    0.07776    0.00000
   4092.969     1.20894    0.1065(23)   191699.    0.07772    0.00000
   4101.172     1.21136    0.1055(23)   193165.    0.07768    0.00000
   4109.391     1.21378    0.1081(23)   189098.    0.07764    0.00000
   4117.609     1.21621    0.1082(23)   189098.    0.07760    0.00000
   4125.844     1.21864    0.1050(23)   194637.    0.07756    0.00000
   4134.109     1.22108    0.1028(22)   200377.    0.07752    0.00000
   4142.391     1.22352    0.0993(22)   207037.    0.07748    0.00000
   4150.688     1.22597    0.0947(22)   215654.    0.07744    0.00000
   4159.0       1.22842    0.0954(22)   215654.    0.07740    0.00000
   4167.328     1.23088    0.0981(22)   210174.    0.07736    0.00000
   4175.672     1.23335    0.1011(22)   205630.    0.07732    0.00000
   4184.031     1.23581    0.1030(22)   202742.    0.07729    0.00000
   4192.406     1.23828    0.1086(23)   192266.    0.07725    0.00000
   4200.797     1.24076    0.1109(23)   187759.    0.07721    0.00000
   4209.203     1.24324    0.1260(25)   166521.    0.07717    0.00000
   4217.625     1.24573    0.1327(25)   158400.    0.07713    0.00000
   4226.078     1.24822    0.1349(25)   156607.    0.07709    0.00000
   4234.547     1.25072    0.1343(25)   156607.    0.07706    0.00000
   4243.016     1.25322    0.1275(25)   165772.    0.07702    0.00000
   4251.5       1.25572    0.1220(24)   173611.    0.07698    0.00000
   4260.016     1.25824    0.1255(24)   169857.    0.07694    0.00000
   4268.547     1.26076    0.1294(25)   163478.    0.07691    0.00000
   4277.094     1.26328    0.1243(24)   171104.    0.07687    0.00000
   4285.656     1.26581    0.1248(24)   171104.    0.07683    0.00000
   4294.234     1.26834    0.1263(24)   169072.    0.07680    0.00000
   4302.828     1.27087    0.1286(25)   165883.    0.07676    0.00000
   4311.438     1.27341    0.1277(24)   168686.    0.07672    0.00000
   4320.078     1.27596    0.1260(24)   169911.    0.07669    0.00000
   4328.734     1.27852    0.1204(24)   180053.    0.07665    0.00000
   4337.391     1.28107    0.1131(23)   189214.    0.07661    0.00000
   4346.078     1.28364    0.1077(22)   201978.    0.07658    0.00000
   4354.781     1.28621    0.1035(22)   209066.    0.07654    0.00000
   4363.5       1.28878    0.1066(22)   203429.    0.07651    0.00000
   4372.234     1.29136    0.1134(23)   191956.    0.07647    0.00000
   4380.984     1.29394    0.1147(23)   188977.    0.07644    0.00000
   4389.766     1.29653    0.1085(22)   200725.    0.07640    0.00000
   4398.547     1.29912    0.1035(22)   211371.    0.07637    0.00000
   4407.344     1.30172    0.0974(21)   224477.    0.07633    0.00000
   4416.172     1.30433    0.0932(21)   236119.    0.07630    0.00000
   4425.016     1.30694    0.0916(20)   238735.    0.07626    0.00000
   4433.875     1.30955    0.0971(21)   227673.    0.07623    0.00000
   4442.75      1.31217    0.1018(22)   215909.    0.07619    0.00000
   4451.641     1.31479    0.1127(23)   196335.    0.07616    0.00000
   4460.563     1.31743    0.1186(23)   186420.    0.07612    0.00000
   4469.5       1.32006    0.1217(23)   182869.    0.07609    0.00000
   4478.438     1.32270    0.1178(23)   188234.    0.07606    0.00000
   4487.391     1.32535    0.1154(23)   193287.    0.07602    0.00000
   4496.375     1.32800    0.1034(21)   217456.    0.07599    0.00000
   4505.391     1.33066    0.0954(21)   235760.    0.07596    0.00000
   4514.406     1.33332    0.0965(21)   231634.    0.07592    0.00000
   4523.438     1.33598    0.0971(21)   232370.    0.07589    0.00000
   4532.5       1.33866    0.1039(21)   218219.    0.07586    0.00000
   4541.578     1.34134    0.1196(23)   189319.    0.07582    0.00000
   4550.672     1.34402    0.1382(25)   163351.    0.07579    0.00000
   4559.781     1.34671    0.1542(26)   146998.    0.07576    0.00000
   4568.906     1.34940    0.1576(26)   143361.    0.07573    0.00000
   4578.047     1.35210    0.1530(26)   149258.    0.07569    0.00000
   4587.219     1.35481    0.1425(25)   160962.    0.07566    0.00000
   4596.406     1.35752    0.1397(25)   163811.    0.07563    0.00000
   4605.609     1.36024    0.1296(24)   177197.    0.07560    0.00000
   4614.828     1.36296    0.1238(23)   185574.    0.07557    0.00000
   4624.063     1.36568    0.1198(23)   192185.    0.07554    0.00000
   4633.328     1.36842    0.1171(23)   197206.    0.07550    0.00000
   4642.609     1.37116    0.1170(22)   199107.    0.07547    0.00000
   4651.891     1.37390    0.1185(23)   195332.    0.07544    0.00000
   4661.203     1.37664    0.1152(22)   203752.    0.07541    0.00000
   4670.547     1.37940    0.1191(23)   196100.    0.07538    0.00000
   4679.891     1.38216    0.1174(22)   197972.    0.07535    0.00000
   4689.25      1.38492    0.1112(22)   211194.    0.07532    0.00000
   4698.641     1.38769    0.1061(21)   221194.    0.07529    0.00000
   4708.047     1.39047    0.1124(22)   208496.    0.07526    0.00000
   4717.469     1.39325    0.1153(22)   203902.    0.07523    0.00000
   4726.922     1.39604    0.1160(22)   205255.    0.07520    0.00000
   4736.391     1.39884    0.1178(22)   201382.    0.07517    0.00000
   4745.875     1.40164    0.1131(22)   210623.    0.07514    0.00000
   4755.375     1.40444    0.1108(22)   214753.    0.07511    0.00000
   4764.891     1.40725    0.1096(22)   216168.    0.07508    0.00000
   4774.422     1.41006    0.1122(22)   212011.    0.07505    0.00000
   4783.984     1.41288    0.1187(22)   202870.    0.07502    0.00000
   4793.563     1.41571    0.1264(23)   188929.    0.07499    0.00000
   4803.156     1.41854    0.1288(23)   187973.    0.07497    0.00000
   4812.781     1.42138    0.1358(24)   178210.    0.07494    0.00000
   4822.406     1.42422    0.1449(25)   166333.    0.07491    0.00000
   4832.063     1.42707    0.1425(24)   169937.    0.07488    0.00000
   4841.75      1.42993    0.1329(23)   183741.    0.07485    0.00000
   4851.438     1.43279    0.1185(22)   204925.    0.07483    0.00000
   4861.141     1.43566    0.1050(21)   231482.    0.07480    0.00000
   4870.875     1.43853    0.0947(20)   257874.    0.07477    0.00000
   4880.625     1.44141    0.0882(19)   277757.    0.07474    0.00000
   4890.391     1.44429    0.0863(19)   285684.    0.07472    0.00000
   4900.188     1.44718    0.0837(18)   293902.    0.07469    0.00000
   4910.0       1.45008    0.0873(19)   281330.    0.07466    0.00000
   4919.828     1.45298    0.0901(19)   274161.    0.07464    0.00000
   4929.672     1.45588    0.0960(20)   257465.    0.07461    0.00000
   4939.547     1.45880    0.1053(21)   235808.    0.07458    0.00000
   4949.438     1.46172    0.1163(22)   212935.    0.07456    0.00000
   4959.344     1.46464    0.1253(22)   198584.    0.07453    0.00000
   4969.281     1.46757    0.1278(23)   195069.    0.07451    0.00000
   4979.219     1.47051    0.1264(23)   196815.    0.07448    0.00000
   4989.188     1.47345    0.1209(22)   206612.    0.07446    0.00000
   4999.188     1.47640    0.1118(21)   224613.    0.07443    0.00000
   5009.188     1.47935    0.1049(20)   240292.    0.07441    0.00000
   5019.219     1.48231    0.1028(20)   245708.    0.07438    0.00000
   5029.266     1.48528    0.1057(21)   237124.    0.07436    0.00000
   5039.328     1.48825    0.1139(21)   222473.    0.07434    0.00000
   5049.422     1.49123    0.1307(23)   192597.    0.07431    0.00000
   5059.531     1.49421    0.1451(24)   175049.    0.07429    0.00000
   5069.656     1.49720    0.1628(25)   156426.    0.07427    0.00000
   5079.797     1.50019    0.1740(26)   146884.    0.07424    0.00000
   5089.969     1.50320    0.1710(26)   150046.    0.07422    0.00000
   5100.172     1.50621    0.1721(26)   149826.    0.07420    0.00000
   5110.391     1.50922    0.1701(26)   150968.    0.07418    0.00000
   5120.609     1.51224    0.1630(25)   158099.    0.07415    0.00000
   5130.859     1.51527    0.1542(24)   167782.    0.07413    0.00000
   5141.141     1.51830    0.1463(24)   176100.    0.07411    0.00000
   5151.438     1.52134    0.1315(22)   197584.    0.07409    0.00000
   5161.75      1.52438    0.1200(22)   215785.    0.07407    0.00000
   5172.078     1.52743    0.1115(21)   233630.    0.07405    0.00000
   5182.438     1.53049    0.1056(20)   246424.    0.07403    0.00000
   5192.813     1.53355    0.1010(20)   258652.    0.07401    0.00000
   5203.203     1.53662    0.1016(20)   257680.    0.07399    0.00000
   5213.625     1.53969    0.1056(20)   249402.    0.07397    0.00000
   5224.063     1.54278    0.1072(20)   244697.    0.07395    0.00000
   5234.516     1.54586    0.1050(20)   248514.    0.07393    0.00000
   5245.0       1.54896    0.1120(21)   234131.    0.07391    0.00000
   5255.5       1.55205    0.1266(22)   208412.    0.07389    0.00000
   5266.016     1.55516    0.1492(24)   176040.    0.07387    0.00000
   5276.563     1.55827    0.1779(26)   148605.    0.07386    0.00000
   5287.125     1.56139    0.1941(27)   136396.    0.07384    0.00000
   5297.703     1.56451    0.2023(28)   131624.    0.07382    0.00000
   5308.313     1.56764    0.1950(27)   137055.    0.07380    0.00000
   5318.938     1.57078    0.1804(26)   148197.    0.07379    0.00000
   5329.578     1.57392    0.1603(24)   166697.    0.07377    0.00000
   5340.25      1.57707    0.1436(23)   185716.    0.07376    0.00000
   5350.953     1.58023    0.1345(22)   199465.    0.07374    0.00000
   5361.672     1.58339    0.1368(23)   196181.    0.07372    0.00000
   5372.406     1.58656    0.1533(24)   174965.    0.07371    0.00000
   5383.156     1.58973    0.1818(26)   147401.    0.07369    0.00000
   5393.922     1.59291    0.2180(28)   123328.    0.07368    0.00000
   5404.719     1.59610    0.2312(29)   117079.    0.07367    0.00000
   5415.547     1.59930    0.2210(29)   122359.    0.07365    0.00000
   5426.391     1.60250    0.2030(27)   134207.    0.07364    0.00000
   5437.25      1.60570    0.1689(25)   162230.    0.07362    0.00000
   5448.141     1.60892    0.1508(23)   181498.    0.07361    0.00000
   5459.047     1.61213    0.1327(22)   206504.    0.07360    0.00000
   5469.969     1.61536    0.1183(21)   232158.    0.07359    0.00000
   5480.922     1.61859    0.1063(20)   257874.    0.07358    0.00000
   5491.891     1.62183    0.0999(19)   275437.    0.07356    0.00000
   5502.891     1.62508    0.0952(19)   289562.    0.07355    0.00000
   5513.922     1.62833    0.0889(18)   310398.    0.07354    0.00000
   5524.953     1.63159    0.0910(18)   304221.    0.07353    0.00000
   5536.0       1.63485    0.1032(19)   269741.    0.07352    0.00000
   5547.078     1.63812    0.1203(21)   230639.    0.07351    0.00000
   5558.188     1.64140    0.1352(22)   206190.    0.07350    0.00000
   5569.328     1.64469    0.1517(23)   184115.    0.07349    0.00000
   5580.484     1.64798    0.1492(23)   186981.    0.07349    0.00000
   5591.656     1.65128    0.1329(22)   210226.    0.07348    0.00000
   5602.844     1.65458    0.1206(21)   230544.    0.07347    0.00000
   5614.047     1.65789    0.1123(20)   248613.    0.07346    0.00000
   5625.297     1.66121    0.1134(20)   249171.    0.07346    0.00000
   5636.563     1.66453    0.1145(20)   243464.    0.07345    0.00000
   5647.844     1.66786    0.1113(20)   252786.    0.07344    0.00000
   5659.156     1.67120    0.1081(20)   259664.    0.07344    0.00000
   5670.484     1.67455    0.1023(19)   275807.    0.07343    0.00000
   5681.828     1.67789    0.0990(19)   283631.    0.07343    0.00000
   5693.203     1.68125    0.0937(18)   303630.    0.07342    0.00000
   5704.609     1.68462    0.0902(18)   312626.    0.07342    0.00000
   5716.031     1.68799    0.0881(18)   320597.    0.07342    0.00000
   5727.469     1.69137    0.0911(18)   311282.    0.07341    0.00000
   5738.938     1.69475    0.0958(18)   297051.    0.07341    0.00000
   5750.438     1.69815    0.0997(19)   283458.    0.07341    0.00000
   5761.938     1.70154    0.1051(19)   270777.    0.07341    0.00000
   5773.469     1.70494    0.1080(19)   264082.    0.07341    0.00000
   5785.031     1.70836    0.1075(19)   266445.    0.07341    0.00000
   5796.609     1.71177    0.1062(19)   267887.    0.07341    0.00000
   5808.219     1.71520    0.1050(19)   271754.    0.07341    0.00000
   5819.844     1.71863    0.1052(19)   271754.    0.07341    0.00000
   5831.5       1.72207    0.1036(19)   277164.    0.07341    0.00000
   5843.172     1.72552    0.1072(19)   266012.    0.07341    0.00000
   5854.859     1.72897    0.1111(20)   257359.    0.07341    0.00000
   5866.594     1.73243    0.1124(20)   256507.    0.07342    0.00000
   5878.344     1.73590    0.1086(19)   265587.    0.07342    0.00000
   5890.109     1.73937    0.1013(19)   284183.    0.07342    0.00000
   5901.906     1.74286    0.1004(19)   288296.    0.07343    0.00000
   5913.719     1.74634    0.0999(19)   288296.    0.07343    0.00000
   5925.547     1.74983    0.0957(18)   303460.    0.07344    0.00000
   5937.406     1.75333    0.0969(18)   299466.    0.07344    0.00000
   5949.297     1.75684    0.0975(18)   298289.    0.07345    0.00000
   5961.219     1.76036    0.1010(19)   289148.    0.07346    0.00000
   5973.156     1.76389    0.1062(19)   274130.    0.07346    0.00000
   5985.109     1.76742    0.1112(20)   261617.    0.07347    0.00000
   5997.094     1.77095    0.1153(20)   252096.    0.07348    0.00000
   6009.094     1.77450    0.1111(20)   262985.    0.07349    0.00000
   6021.125     1.77805    0.1013(19)   289987.    0.07350    0.00000
   6033.188     1.78161    0.0975(18)   300628.    0.07351    0.00000
   6045.266     1.78517    0.0922(18)   319370.    0.07352    0.00000
   6057.359     1.78874    0.0881(17)   334834.    0.07353    0.00000
   6069.484     1.79232    0.0879(17)   335089.    0.07354    0.00000
   6081.641     1.79591    0.0907(18)   325717.    0.07355    0.00000
   6093.813     1.79950    0.0900(18)   321331.    0.07357    0.00000
   6106.016     1.80311    0.0916(17)   332186.    0.07358    0.00000
   6118.234     1.80671    0.0911(18)   317055.    0.07359    0.00000
   6130.484     1.81033    0.0865(17)   345297.    0.07361    0.00000
   6142.766     1.81395    0.0850(17)   345297.    0.07362    0.00000
   6155.063     1.81758    0.0819(16)   367875.    0.07364    0.00000
   6167.375     1.82122    0.0797(17)   364277.    0.07366    0.00000
   6179.719     1.82486    0.0798(16)   375308.    0.07367    0.00000
   6192.094     1.82852    0.0801(16)   371619.    0.07369    0.00000
   6204.484     1.83217    0.0803(16)   369846.    0.07371    0.00000
   6216.906     1.83584    0.0819(16)   368094.    0.07373    0.00000
   6229.359     1.83952    0.0799(16)   369946.    0.07375    0.00000
   6241.828     1.84320    0.0808(16)   369946.    0.07377    0.00000
   6254.328     1.84689    0.0805(16)   373664.    0.07379    0.00000
   6266.859     1.85059    0.0839(17)   356082.    0.07381    0.00000
   6279.406     1.85429    0.0913(17)   329052.    0.07383    0.00000
   6291.969     1.85800    0.1014(18)   295752.    0.07385    0.00000
   6304.563     1.86171    0.1180(20)   255025.    0.07388    0.00000
   6317.188     1.86544    0.1321(21)   226971.    0.07390    0.00000
   6329.828     1.86917    0.1374(21)   218108.    0.07392    0.00000
   6342.5       1.87291    0.1306(21)   230964.    0.07395    0.00000
   6355.203     1.87666    0.1182(20)   254735.    0.07398    0.00000
   6367.922     1.88042    0.1094(19)   276222.    0.07400    0.00000
   6380.672     1.88418    0.0998(18)   300909.    0.07403    0.00000
   6393.453     1.88795    0.0955(18)   314251.    0.07406    0.00000
   6406.25      1.89173    0.0948(18)   318578.    0.07408    0.00000
   6419.078     1.89552    0.1005(18)   301267.    0.07411    0.00000
   6431.922     1.89931    0.1019(18)   296183.    0.07414    0.00000
   6444.797     1.90311    0.1007(18)   301623.    0.07417    0.00000
   6457.703     1.90692    0.1065(19)   284426.    0.07421    0.00000
   6470.625     1.91074    0.1067(19)   285805.    0.07424    0.00000
   6483.578     1.91456    0.1068(19)   284829.    0.07427    0.00000
   6496.563     1.91839    0.1078(19)   281549.    0.07430    0.00000
   6509.578     1.92223    0.1021(18)   297287.    0.07434    0.00000
   6522.609     1.92608    0.0937(18)   323818.    0.07437    0.00000
   6535.656     1.92993    0.0912(17)   334069.    0.07441    0.00000
   6548.734     1.93379    0.0894(17)   341690.    0.07444    0.00000
   6561.844     1.93766    0.0863(17)   352707.    0.07448    0.00000
   6574.984     1.94154    0.0875(17)   348060.    0.07452    0.00000
   6588.156     1.94543    0.0900(17)   340493.    0.07455    0.00000
   6601.344     1.94932    0.0938(18)   325912.    0.07459    0.00000
   6614.563     1.95323    0.0930(17)   329009.    0.07463    0.00000
   6627.813     1.95714    0.0888(17)   343728.    0.07467    0.00000
   6641.078     1.96105    0.0840(17)   364445.    0.07471    0.00000
   6654.375     1.96498    0.0829(16)   369514.    0.07475    0.00000
   6667.688     1.96891    0.0840(17)   366163.    0.07480    0.00000
   6681.031     1.97285    0.0783(16)   390625.    0.07484    0.00000
   6694.422     1.97680    0.0769(16)   399892.    0.07488    0.00000
   6707.828     1.98076    0.0789(16)   388810.    0.07493    0.00000
   6721.25      1.98472    0.0792(16)   387016.    0.07497    0.00000
   6734.703     1.98869    0.0794(16)   388819.    0.07502    0.00000
   6748.188     1.99267    0.0841(17)   363221.    0.07506    0.00000
   6761.703     1.99666    0.0960(18)   317873.    0.07511    0.00000
   6775.234     2.00066    0.0975(18)   312640.    0.07516    0.00000
   6788.797     2.00466    0.0998(18)   305357.    0.07521    0.00000
   6802.391     2.00867    0.1000(18)   305357.    0.07526    0.00000
   6816.0       2.01269    0.0941(18)   324995.    0.07531    0.00000
   6829.641     2.01672    0.0882(17)   346487.    0.07536    0.00000
   6843.313     2.02075    0.0843(17)   363577.    0.07541    0.00000
   6857.016     2.02480    0.0828(16)   371761.    0.07546    0.00000
   6870.75      2.02885    0.0840(17)   363694.    0.07552    0.00000
   6884.516     2.03292    0.0784(16)   392403.    0.07557    0.00000
   6898.297     2.03699    0.0788(16)   388859.    0.07562    0.00000
   6912.094     2.04106    0.0765(16)   397792.    0.07568    0.00000
   6925.938     2.04515    0.0816(16)   376920.    0.07574    0.00000
   6939.813     2.04924    0.0814(16)   373606.    0.07579    0.00000
   6953.703     2.05334    0.0819(16)   372006.    0.07585    0.00000
   6967.625     2.05745    0.0879(17)   348775.    0.07591    0.00000
   6981.578     2.06157    0.0907(17)   335955.    0.07597    0.00000
   6995.547     2.06569    0.0925(17)   327745.    0.07603    0.00000
   7009.547     2.06983    0.0950(18)   322700.    0.07609    0.00000
   7023.578     2.07397    0.0961(18)   317537.    0.07615    0.00000
   7037.641     2.07812    0.0922(17)   330918.    0.07621    0.00000
   7051.734     2.08228    0.0854(17)   356639.    0.07627    0.00000
   7065.844     2.08645    0.0829(16)   367507.    0.07634    0.00000
   7080.0       2.09063    0.0820(16)   373969.    0.07640    0.00000
   7094.188     2.09482    0.0804(16)   380501.    0.07646    0.00000
   7108.375     2.09900    0.0805(16)   377214.    0.07653    0.00000
   7122.594     2.10320    0.0809(16)   377271.    0.07660    0.00000
   7136.859     2.10741    0.0804(16)   375682.    0.07666    0.00000
   7151.156     2.11163    0.0791(16)   383890.    0.07673    0.00000
   7165.469     2.11586    0.0770(16)   390625.    0.07680    0.00000
   7179.813     2.12009    0.0782(16)   387250.    0.07687    0.00000
   7194.188     2.12434    0.0790(16)   383919.    0.07694    0.00000
   7208.594     2.12859    0.0809(16)   371097.    0.07701    0.00000
   7223.031     2.13285    0.0779(16)   390625.    0.07708    0.00000
   7237.484     2.13712    0.0816(16)   369580.    0.07715    0.00000
   7251.969     2.14139    0.0804(16)   371178.    0.07723    0.00000
   7266.484     2.14568    0.0798(16)   372779.    0.07730    0.00000
   7281.031     2.14997    0.0788(16)   380757.    0.07737    0.00000
   7295.609     2.15428    0.0815(16)   369753.    0.07745    0.00000
   7310.219     2.15859    0.0823(17)   362226.    0.07752    0.00000
   7324.859     2.16291    0.0868(17)   346455.    0.07760    0.00000
   7339.531     2.16724    0.0878(17)   339699.    0.07768    0.00000
   7354.219     2.17158    0.0931(18)   319116.    0.07776    0.00000
   7368.938     2.17593    0.0900(17)   334583.    0.07783    0.00000
   7383.688     2.18028    0.0886(17)   339894.    0.07791    0.00000
   7398.469     2.18464    0.0857(17)   348265.    0.07799    0.00000
   7413.281     2.18902    0.0826(17)   359636.    0.07807    0.00000
   7428.125     2.19340    0.0821(17)   359758.    0.07815    0.00000
   7443.0       2.19779    0.0795(16)   371650.    0.07824    0.00000
   7457.891     2.20219    0.0792(16)   373213.    0.07832    0.00000
   7472.828     2.20660    0.0812(17)   364307.    0.07840    0.00000
   7487.797     2.21102    0.0814(17)   361387.    0.07849    0.00000
   7502.781     2.21544    0.0793(16)   371803.    0.07857    0.00000
   7517.797     2.21987    0.0819(17)   361502.    0.07866    0.00000
   7532.844     2.22432    0.0838(17)   348910.    0.07874    0.00000
   7547.922     2.22877    0.0853(17)   342259.    0.07883    0.00000
   7563.031     2.23323    0.0887(17)   328234.    0.07892    0.00000
   7578.172     2.23770    0.0895(17)   327108.    0.07900    0.00000
   7593.344     2.24218    0.0905(18)   321146.    0.07909    0.00000
   7608.547     2.24667    0.0896(18)   324889.    0.07918    0.00000
   7623.781     2.25116    0.0865(17)   336224.    0.07927    0.00000
   7639.047     2.25567    0.0826(17)   356318.    0.07936    0.00000
   7654.344     2.26019    0.0875(17)   331382.    0.07945    0.00000
   7669.672     2.26471    0.0871(17)   332736.    0.07954    0.00000
   7685.031     2.26925    0.0946(18)   310322.    0.07964    0.00000
   7700.422     2.27379    0.1153(20)   255149.    0.07973    0.00000
   7715.828     2.27834    0.1490(23)   191562.    0.07982    0.00000
   7731.266     2.28290    0.1846(26)   151820.    0.07992    0.00000
   7746.75      2.28747    0.1910(26)   147198.    0.08001    0.00000
   7762.266     2.29205    0.1797(25)   157783.    0.08011    0.00000
   7777.813     2.29664    0.1552(23)   184817.    0.08020    0.00000
   7793.375     2.30123    0.1299(21)   219727.    0.08030    0.00000
   7808.969     2.30584    0.1114(20)   254049.    0.08039    0.00000
   7824.609     2.31045    0.1000(19)   283583.    0.08049    0.00000
   7840.281     2.31508    0.0960(18)   294654.    0.08059    0.00000
   7855.969     2.31971    0.0939(18)   305120.    0.08069    0.00000
   7871.688     2.32435    0.1001(19)   286990.    0.08079    0.00000
   7887.453     2.32901    0.1277(21)   224592.    0.08089    0.00000
   7903.25      2.33367    0.1780(25)   158643.    0.08099    0.00000
   7919.078     2.33834    0.2429(30)   114610.    0.08109    0.00000
   7934.922     2.34302    0.3011(33)   90729.     0.08119    0.00000
   7950.797     2.34771    0.3133(34)   87088.     0.08129    0.00000
   7966.719     2.35241    0.2826(32)   97656.     0.08139    0.00000
   7982.672     2.35712    0.2408(29)   115930.    0.08149    0.00000
   7998.656     2.36184    0.2099(27)   134669.    0.08160    0.00000
   8014.672     2.36657    0.1980(26)   143633.    0.08170    0.00000
   8030.719     2.37130    0.2319(29)   120877.    0.08180    0.00000
   8046.797     2.37605    0.3007(33)   91515.     0.08191    0.00000
   8062.906     2.38081    0.383(4)     70570.     0.0820     0.0000 
   8079.047     2.38557    0.439(4)     60288.     0.0821     0.0000 
   8095.219     2.39035    0.431(4)     61830.     0.0822     0.0000 
   8111.422     2.39513    0.378(4)     71159.     0.0823     0.0000 
   8127.656     2.39992    0.3070(34)   88254.     0.08243    0.00000
   8143.938     2.40473    0.2352(29)   117443.    0.08254    0.00000
   8160.25      2.40955    0.1779(25)   154506.    0.08265    0.00000
   8176.578     2.41437    0.1465(23)   184985.    0.08275    0.00000
   8192.938     2.41920    0.1230(21)   221414.    0.08286    0.00000
   8209.344     2.42404    0.1080(20)   254236.    0.08297    0.00000
   8225.781     2.42890    0.0991(19)   274039.    0.08308    0.00000
   8242.25      2.43376    0.0940(19)   285135.    0.08319    0.00000
   8258.75      2.43863    0.0898(18)   302500.    0.08329    0.00000
   8275.281     2.44351    0.0903(18)   292960.    0.08340    0.00000
   8291.859     2.44841    0.0859(18)   305947.    0.08351    0.00000
   8308.453     2.45330    0.0872(18)   301908.    0.08362    0.00000
   8325.078     2.45821    0.0858(18)   300198.    0.08373    0.00000
   8341.75      2.46314    0.0852(18)   305329.    0.08384    0.00000
   8358.453     2.46807    0.0848(18)   304454.    0.08395    0.00000
   8375.188     2.47301    0.0859(18)   297682.    0.08406    0.00000
   8391.953     2.47796    0.0899(19)   282017.    0.08417    0.00000
   8408.75      2.48292    0.0885(19)   290372.    0.08429    0.00000
   8425.594     2.48789    0.0870(18)   292535.    0.08440    0.00000
   8442.469     2.49287    0.0883(19)   285176.    0.08451    0.00000
   8459.359     2.49786    0.0896(19)   279122.    0.08462    0.00000
   8476.297     2.50286    0.0936(19)   267641.    0.08473    0.00000
   8493.266     2.50787    0.0894(19)   281190.    0.08484    0.00000
   8510.266     2.51289    0.0900(19)   281503.    0.08495    0.00000
   8527.313     2.51792    0.0886(19)   282537.    0.08507    0.00000
   8544.391     2.52297    0.0871(19)   288949.    0.08518    0.00000
   8561.5       2.52802    0.0888(19)   279364.    0.08529    0.00000
   8578.641     2.53308    0.0888(19)   280385.    0.08540    0.00000
   8595.813     2.53815    0.0877(19)   277965.    0.08552    0.00000
   8613.016     2.54323    0.0847(19)   289536.    0.08563    0.00000
   8630.25      2.54832    0.0848(19)   285216.    0.08574    0.00000
   8647.531     2.55342    0.0861(19)   282023.    0.08585    0.00000
   8664.844     2.55853    0.0858(19)   282023.    0.08596    0.00000
   8682.188     2.56365    0.0808(18)   296666.    0.08608    0.00000
   8699.578     2.56879    0.0835(19)   283345.    0.08619    0.00000
   8717.0       2.57393    0.0827(19)   291450.    0.08630    0.00000
   8734.453     2.57908    0.0847(19)   285383.    0.08641    0.00000
   8751.938     2.58424    0.0909(20)   260308.    0.08653    0.00000
   8769.453     2.58942    0.0937(20)   252334.    0.08664    0.00000
   8787.0       2.59460    0.0970(20)   243373.    0.08675    0.00000
   8804.594     2.59979    0.1044(21)   222083.    0.08686    0.00000
   8822.219     2.60500    0.1095(22)   210667.    0.08697    0.00000
   8839.875     2.61021    0.1289(23)   182529.    0.08708    0.00000
   8857.578     2.61544    0.1749(27)   135136.    0.08720    0.00000
   8875.313     2.62067    0.2556(33)   89596.     0.08731    0.00000
   8893.078     2.62592    0.351(4)     63254.     0.0874     0.0000 
   8910.891     2.63118    0.415(4)     53286.     0.0875     0.0000 
   8928.734     2.63645    0.420(4)     52739.     0.0876     0.0000 
   8946.609     2.64172    0.369(4)     61169.     0.0878     0.0000 
   8964.516     2.64701    0.307(4)     74056.     0.0879     0.0000 
   8982.453     2.65231    0.2565(33)   89688.     0.08797    0.00000
   9000.438     2.65762    0.2229(31)   102948.    0.08808    0.00000
   9018.453     2.66294    0.1964(29)   115744.    0.08819    0.00000
   9036.516     2.66827    0.1755(28)   128883.    0.08830    0.00000
   9054.609     2.67361    0.1497(26)   151409.    0.08841    0.00000
   9072.734     2.67897    0.1291(24)   176638.    0.08851    0.00000
   9090.906     2.68433    0.1141(22)   198713.    0.08862    0.00000
   9109.109     2.68971    0.1081(22)   207452.    0.08873    0.00000
   9127.344     2.69509    0.1028(21)   217857.    0.08884    0.00000
   9145.609     2.70048    0.1066(22)   205779.    0.08894    0.00000
   9163.922     2.70589    0.1072(22)   202142.    0.08905    0.00000
   9182.266     2.71131    0.1110(23)   195380.    0.08916    0.00000
   9200.641     2.71673    0.1211(24)   178221.    0.08926    0.00000
   9219.063     2.72217    0.1445(26)   148781.    0.08937    0.00000
   9237.516     2.72762    0.1665(28)   124226.    0.08947    0.00000
   9256.016     2.73308    0.1792(30)   114772.    0.08957    0.00000
   9274.547     2.73855    0.1726(29)   119086.    0.08968    0.00000
   9293.109     2.74404    0.1521(27)   138291.    0.08978    0.00000
   9311.719     2.74953    0.1495(26)   143890.    0.08988    0.00000
   9330.359     2.75503    0.1566(27)   133293.    0.08998    0.00000
   9349.031     2.76055    0.1807(30)   114196.    0.09009    0.00000
   9367.75      2.76608    0.2113(32)   95732.     0.09019    0.00000
   9386.516     2.77162    0.2361(34)   85315.     0.09029    0.00000
   9405.313     2.77717    0.255(4)     77446.     0.0904     0.0000 
   9424.141     2.78273    0.248(4)     80538.     0.0905     0.0000 
   9443.0       2.78830    0.2241(33)   89478.     0.09058    0.00000
   9461.906     2.79388    0.1885(30)   108470.    0.09068    0.00000
   9480.859     2.79947    0.1585(28)   130545.    0.09078    0.00000
   9499.828     2.80508    0.1360(26)   150473.    0.09087    0.00000
   9518.844     2.81069    0.1233(25)   163802.    0.09097    0.00000
   9537.906     2.81632    0.1134(24)   177862.    0.09106    0.00000
   9557.0       2.82196    0.1126(24)   175903.    0.09115    0.00000
   9576.141     2.82761    0.1167(24)   171182.    0.09125    0.00000
   9595.313     2.83327    0.1398(26)   143226.    0.09134    0.00000
   9614.516     2.83894    0.1913(31)   101582.    0.09143    0.00000
   9633.766     2.84462    0.267(4)     70147.     0.0915     0.0000 
   9653.047     2.85032    0.336(4)     54489.     0.0916     0.0000 
   9672.359     2.85602    0.361(4)     50710.     0.0917     0.0000 
   9691.734     2.86174    0.338(4)     54932.     0.0918     0.0000 
   9711.141     2.86747    0.280(4)     67130.     0.0919     0.0000 
   9730.578     2.87321    0.2282(35)   83934.     0.09196    0.00000
   9750.063     2.87897    0.1840(31)   104231.    0.09204    0.00000
   9769.578     2.88473    0.1546(28)   123844.    0.09213    0.00000
   9789.141     2.89051    0.1316(26)   145314.    0.09221    0.00000
   9808.75      2.89630    0.1220(25)   154674.    0.09229    0.00000
   9828.391     2.90210    0.1172(25)   160920.    0.09238    0.00000
   9848.063     2.90790    0.1241(26)   150194.    0.09246    0.00000
   9867.766     2.91372    0.1412(28)   126233.    0.09254    0.00000
   9887.516     2.91955    0.1702(31)   102124.    0.09261    0.00000
   9907.313     2.92540    0.1985(34)   87444.     0.09269    0.00000
   9927.156     2.93126    0.2065(34)   84927.     0.09277    0.00000
   9947.031     2.93713    0.2131(35)   83452.     0.09284    0.00000
   9966.938     2.94301    0.227(4)     78192.     0.0929     0.0000 
   9986.891     2.94890    0.246(4)     70512.     0.0930     0.0000 
   10006.891    2.95480    0.264(4)     63807.     0.0931     0.0000 
   10026.922    2.96072    0.266(4)     63647.     0.0931     0.0000 
   10046.984    2.96664    0.236(4)     73732.     0.0932     0.0000 
   10067.109    2.97259    0.226(4)     77294.     0.0933     0.0000 
   10087.266    2.97854    0.243(4)     71462.     0.0933     0.0000 
   10107.453    2.98450    0.293(4)     56983.     0.0934     0.0000 
   10127.688    2.99048    0.349(5)     46507.     0.0935     0.0000 
   10147.969    2.99646    0.370(5)     43942.     0.0935     0.0000 
   10168.297    3.00247    0.353(5)     46052.     0.0936     0.0000 
   10188.656    3.00848    0.314(4)     52884.     0.0937     0.0000 
   10209.047    3.01450    0.287(4)     59868.     0.0937     0.0000 
   10229.484    3.02054    0.336(4)     50483.     0.0938     0.0000 
   10249.969    3.02659    0.463(5)     34543.     0.0938     0.0000 
   10270.484    3.03264    0.616(6)     24752.     0.0939     0.0000 
   10291.047    3.03872    0.718(7)     21122.     0.0939     0.0000 
   10311.656    3.04480    0.716(7)     21427.     0.0940     0.0000 
   10332.297    3.05090    0.620(6)     25680.     0.0941     0.0000 
   10352.969    3.05700    0.541(6)     30020.     0.0941     0.0000 
   10373.688    3.06312    0.513(6)     32220.     0.0942     0.0000 
   10394.469    3.06926    0.615(6)     26111.     0.0942     0.0000 
   10415.281    3.07540    0.828(7)     18170.     0.0942     0.0000 
   10436.125    3.08156    1.011(8)     14510.     0.0943     0.0000 
   10457.016    3.08773    1.041(8)     14046.     0.0943     0.0000 
   10477.953    3.09391    0.880(8)     17068.     0.0944     0.0000 
   10498.938    3.10011    0.643(6)     24523.     0.0944     0.0000 
   10519.953    3.10631    0.437(5)     37366.     0.0945     0.0000 
   10541.016    3.11253    0.297(4)     57457.     0.0945     0.0000 
   10562.125    3.11877    0.218(4)     76656.     0.0945     0.0000 
   10583.266    3.12501    0.1695(32)   94834.     0.09458    0.00000
   10604.453    3.13127    0.1424(30)   109578.    0.09461    0.00000
   10625.688    3.13754    0.1245(29)   122155.    0.09465    0.00000
   10646.953    3.14382    0.1169(28)   125385.    0.09468    0.00000
   10668.266    3.15011    0.1087(27)   134031.    0.09471    0.00000
   10689.625    3.15642    0.1075(28)   132147.    0.09474    0.00000
   10711.031    3.16274    0.1067(27)   132470.    0.09477    0.00000
   10732.469    3.16907    0.1046(27)   138037.    0.09479    0.00000
   10753.953    3.17542    0.1095(28)   126239.    0.09482    0.00000
   10775.484    3.18178    0.1100(28)   127922.    0.09484    0.00000
   10797.047    3.18814    0.1124(29)   119753.    0.09486    0.00000
   10818.672    3.19453    0.1078(28)   126454.    0.09488    0.00000
   10840.344    3.20093    0.1086(28)   123152.    0.09490    0.00000
   10862.047    3.20734    0.1059(28)   127603.    0.09492    0.00000
   10883.781    3.21376    0.1035(28)   129243.    0.09494    0.00000
   10905.563    3.22019    0.1011(27)   137145.    0.09495    0.00000
   10927.406    3.22664    0.0967(27)   140786.    0.09497    0.00000
   10949.281    3.23310    0.0995(28)   129873.    0.09498    0.00000
   10971.188    3.23957    0.0924(26)   143555.    0.09499    0.00000
   10993.156    3.24606    0.0925(27)   139513.    0.09500    0.00000
   11015.172    3.25256    0.0961(27)   137564.    0.09500    0.00000
   11037.219    3.25907    0.0969(28)   132109.    0.09501    0.00000
   11059.313    3.26560    0.1006(28)   125316.    0.09502    0.00000
   11081.453    3.27213    0.1189(31)   106163.    0.09502    0.00000
   11103.641    3.27869    0.159(4)     78902.     0.0950     0.0000 
   11125.875    3.28525    0.232(4)     52833.     0.0950     0.0000 
   11148.156    3.29183    0.315(5)     36998.     0.0950     0.0000 
   11170.484    3.29843    0.372(6)     31198.     0.0950     0.0000 
   11192.844    3.30503    0.374(6)     31888.     0.0950     0.0000 
   11215.25     3.31165    0.332(5)     36714.     0.0950     0.0000 
   11237.703    3.31828    0.281(5)     43524.     0.0950     0.0000 
   11260.188    3.32492    0.224(4)     55625.     0.0950     0.0000 
   11282.734    3.33158    0.190(4)     67754.     0.0950     0.0000 
   11305.328    3.33825    0.190(4)     65176.     0.0950     0.0000 
   11327.953    3.34493    0.219(4)     54330.     0.0950     0.0000 
   11350.641    3.35163    0.263(5)     43126.     0.0949     0.0000 
   11373.359    3.35834    0.294(5)     37899.     0.0949     0.0000 
   11396.125    3.36507    0.302(5)     37123.     0.0949     0.0000 
   11418.953    3.37181    0.270(5)     42201.     0.0949     0.0000 
   11441.813    3.37856    0.224(4)     52854.     0.0949     0.0000 
   11464.719    3.38532    0.181(4)     64954.     0.0949     0.0000 
   11487.672    3.39210    0.1449(35)   82021.     0.09483    0.00000
   11510.672    3.39890    0.1319(34)   87635.     0.09481    0.00000
   11533.719    3.40570    0.1135(32)   99536.     0.09479    0.00000
   11556.797    3.41252    0.0996(29)   114999.    0.09476    0.00000
   11579.922    3.41935    0.0998(31)   106972.    0.09473    0.00000
   11603.109    3.42620    0.0982(31)   106645.    0.09470    0.00000
   11626.344    3.43306    0.0956(30)   111591.    0.09467    0.00000
   11649.625    3.43993    0.0947(30)   113821.    0.09464    0.00000
   11672.953    3.44682    0.0952(30)   109019.    0.09461    0.00000
   11696.313    3.45372    0.1007(32)   97136.     0.09458    0.00000
   11719.719    3.46064    0.0984(31)   100858.    0.09454    0.00000
   11743.188    3.46757    0.0979(31)   101948.    0.09451    0.00000
   11766.703    3.47451    0.0952(31)   103340.    0.09447    0.00000
   11790.266    3.48147    0.0914(31)   106787.    0.09443    0.00000
   11813.875    3.48844    0.0857(29)   116219.    0.09439    0.00000
   11837.516    3.49543    0.0842(29)   119964.    0.09435    0.00000
   11861.203    3.50242    0.0868(30)   113511.    0.09431    0.00000
   11884.953    3.5094     0.0912(31)   104973.    0.09426    0.00000
   11908.75     3.5165     0.0887(31)   105825.    0.09422    0.00000
   11932.594    3.5235     0.0887(30)   107553.    0.09417    0.00000
   11956.484    3.5306     0.0882(30)   110860.    0.09413    0.00000
   11980.422    3.5376     0.0940(31)   103787.    0.09408    0.00000
   12004.406    3.5447     0.0982(32)   94918.     0.09403    0.00000
   12028.438    3.5518     0.1055(34)   86744.     0.09398    0.00000
   12052.516    3.5589     0.1050(33)   90253.     0.09393    0.00000
   12076.641    3.5661     0.1039(34)   88501.     0.09388    0.00000
   12100.828    3.5732     0.1075(34)   84734.     0.09383    0.00000
   12125.063    3.5804     0.1060(34)   84546.     0.09378    0.00000
   12149.328    3.5875     0.1059(35)   82376.     0.09372    0.00000
   12173.641    3.5947     0.1019(34)   87706.     0.09367    0.00000
   12198.016    3.6019     0.0974(33)   90120.     0.09361    0.00000
   12222.438    3.6091     0.0940(32)   94966.     0.09355    0.00000
   12246.906    3.6163     0.0878(31)   102300.    0.09350    0.00000
   12271.422    3.6236     0.0872(31)   100973.    0.09344    0.00000
   12295.984    3.6308     0.0932(34)   88867.     0.09338    0.00000
   12320.609    3.6381     0.0868(32)   99923.     0.09332    0.00000
   12345.281    3.6454     0.0805(30)   111299.    0.09326    0.00000
   12370.0      3.6527     0.0845(31)   103855.    0.09320    0.00000
   12394.766    3.6600     0.0898(33)   93832.     0.09314    0.00000
   12419.578    3.6673     0.0915(34)   88312.     0.09307    0.00000
   12444.438    3.6747     0.0915(33)   90691.     0.09301    0.00000
   12469.344    3.6820     0.0861(32)   97656.     0.09295    0.00000
   12494.313    3.6894     0.0894(33)   94095.     0.09288    0.00000
   12519.328    3.6968     0.0901(33)   93411.     0.09282    0.00000
   12544.391    3.7042     0.0991(34)   85140.     0.09275    0.00000
   12569.5      3.7116     0.119(4)     69799.     0.0927     0.0000 
   12594.656    3.7191     0.164(5)     48222.     0.0926     0.0000 
   12619.875    3.7265     0.219(5)     35139.     0.0926     0.0000 
   12645.141    3.7340     0.261(6)     30525.     0.0925     0.0000 
   12670.453    3.7414     0.280(6)     27083.     0.0924     0.0000 
   12695.828    3.7489     0.259(6)     29993.     0.0924     0.0000 
   12721.25     3.7564     0.243(6)     32826.     0.0923     0.0000 
   12746.719    3.7640     0.197(5)     40764.     0.0922     0.0000 
   12772.234    3.7715     0.163(5)     48526.     0.0921     0.0000 
   12797.797    3.7791     0.137(4)     58298.     0.0921     0.0000 
   12823.422    3.7866     0.115(4)     68538.     0.0920     0.0000 
   12849.094    3.7942     0.104(4)     74360.     0.0919     0.0000 
   12874.813    3.8018     0.098(4)     78000.     0.0919     0.0000 
   12900.594    3.8094     0.095(4)     80460.     0.0918     0.0000 
   12926.422    3.8170     0.0916(35)   83381.     0.09174    0.00000
   12952.297    3.8247     0.092(4)     81223.     0.0917     0.0000 
   12978.234    3.8324     0.094(4)     74881.     0.0916     0.0000 
   13004.219    3.8400     0.094(4)     77491.     0.0915     0.0000 
   13030.25     3.8477     0.092(4)     78031.     0.0915     0.0000 
   13056.344    3.8554     0.091(4)     77904.     0.0914     0.0000 
   13082.484    3.8631     0.091(4)     77263.     0.0913     0.0000 
   13108.672    3.8709     0.094(4)     74902.     0.0913     0.0000 
   13134.906    3.8786     0.097(4)     72337.     0.0912     0.0000 
   13161.203    3.8864     0.102(4)     66704.     0.0911     0.0000 
   13187.563    3.8942     0.101(4)     70265.     0.0911     0.0000 
   13213.969    3.9020     0.105(4)     66656.     0.0910     0.0000 
   13240.422    3.9098     0.099(4)     69780.     0.0909     0.0000 
   13266.922    3.9176     0.098(4)     69004.     0.0909     0.0000 
   13293.484    3.9255     0.098(4)     68783.     0.0908     0.0000 
   13320.094    3.9333     0.092(4)     71892.     0.0907     0.0000 
   13346.75     3.9412     0.087(4)     78421.     0.0907     0.0000 
   13373.469    3.9491     0.088(4)     73603.     0.0906     0.0000 
   13400.25     3.9570     0.087(4)     77041.     0.0905     0.0000 
   13427.078    3.9649     0.0823(35)   81899.     0.09046    0.00000
   13453.953    3.9729     0.089(4)     71962.     0.0904     0.0000 
   13480.891    3.9808     0.084(4)     77780.     0.0903     0.0000 
   13507.891    3.9888     0.086(4)     77022.     0.0903     0.0000 
   13534.938    3.9968     0.087(4)     73092.     0.0902     0.0000 
   13562.031    4.0048     0.087(4)     72557.     0.0902     0.0000 
   13589.188    4.0128     0.086(4)     71747.     0.0901     0.0000 
   13616.391    4.0209     0.088(4)     68365.     0.0900     0.0000 
   13643.641    4.0289     0.094(4)     63106.     0.0900     0.0000 
   13670.953    4.0370     0.089(4)     67303.     0.0899     0.0000 
   13698.328    4.0451     0.091(4)     66222.     0.0899     0.0000 
   13725.75     4.0532     0.091(4)     62103.     0.0898     0.0000 
   13753.219    4.0613     0.094(4)     63535.     0.0897     0.0000 
   13780.75     4.0694     0.092(4)     63591.     0.0897     0.0000 
   13808.344    4.0776     0.089(4)     65427.     0.0896     0.0000 
   13836.0      4.0857     0.091(4)     60679.     0.0896     0.0000 
   13863.703    4.0939     0.088(4)     61142.     0.0895     0.0000 
   13891.453    4.1021     0.080(4)     74328.     0.0895     0.0000 
   13919.266    4.1103     0.088(4)     64306.     0.0894     0.0000 
   13947.125    4.1186     0.091(4)     60744.     0.0894     0.0000 
   13975.047    4.1268     0.087(4)     68581.     0.0893     0.0000 
   14003.031    4.1351     0.091(4)     61508.     0.0893     0.0000 
   14031.063    4.1434     0.090(4)     61673.     0.0893     0.0000 
   14059.156    4.1516     0.089(4)     62947.     0.0892     0.0000 
   14087.297    4.1600     0.089(4)     58815.     0.0892     0.0000 
   14115.5      4.1683     0.085(4)     66317.     0.0891     0.0000 
   14143.766    4.1766     0.085(4)     67444.     0.0891     0.0000 
   14172.078    4.1850     0.091(4)     59703.     0.0890     0.0000 
   14200.453    4.1934     0.089(4)     61121.     0.0890     0.0000 
   14228.875    4.2018     0.096(4)     54601.     0.0890     0.0000 
   14257.359    4.2102     0.093(4)     55784.     0.0889     0.0000 
   14285.906    4.2186     0.089(4)     60420.     0.0889     0.0000 
   14314.5      4.2271     0.091(4)     61105.     0.0889     0.0000 
   14343.156    4.2355     0.094(4)     58410.     0.0888     0.0000 
   14371.875    4.2440     0.111(5)     47800.     0.0888     0.0000 
   14400.656    4.2525     0.143(5)     37544.     0.0888     0.0000 
   14429.484    4.2610     0.221(6)     24681.     0.0888     0.0000 
   14458.375    4.2696     0.321(8)     16066.     0.0887     0.0000 
   14487.328    4.2781     0.429(9)     11640.     0.0887     0.0000 
   14516.328    4.2867     0.431(9)     12074.     0.0887     0.0000 
   14545.391    4.2953     0.393(9)     13297.     0.0887     0.0000 
   14574.516    4.3039     0.310(8)     17725.     0.0886     0.0000 
   14603.688    4.3125     0.230(6)     25054.     0.0886     0.0000 
   14632.922    4.3211     0.162(5)     36199.     0.0886     0.0000 
   14662.219    4.3298     0.126(5)     43341.     0.0886     0.0000 
   14691.563    4.3385     0.111(5)     46859.     0.0886     0.0000 
   14720.969    4.3472     0.103(4)     50113.     0.0886     0.0000 
   14750.438    4.3559     0.096(4)     53617.     0.0885     0.0000 
   14779.969    4.3646     0.094(4)     53009.     0.0885     0.0000 
   14809.563    4.3733     0.089(4)     54414.     0.0885     0.0000 
   14839.219    4.3821     0.083(4)     56316.     0.0885     0.0000 
   14868.938    4.3909     0.089(4)     51574.     0.0885     0.0000 
   14898.703    4.3997     0.087(4)     52805.     0.0885     0.0000 
   14928.516    4.4085     0.097(5)     40938.     0.0885     0.0000 
   14958.406    4.4173     0.085(4)     53361.     0.0885     0.0000 
   14988.359    4.4262     0.092(5)     48415.     0.0885     0.0000 
   15018.359    4.4350     0.089(4)     49706.     0.0885     0.0000 
   15048.422    4.4439     0.093(5)     44977.     0.0885     0.0000 
   15078.547    4.4528     0.087(4)     51956.     0.0885     0.0000 
   15108.734    4.4617     0.085(4)     57065.     0.0885     0.0000 
   15138.984    4.4707     0.093(5)     44282.     0.0885     0.0000 
   15169.297    4.4796     0.093(5)     45216.     0.0885     0.0000 
   15199.672    4.4886     0.089(5)     48973.     0.0885     0.0000 
   15230.109    4.4976     0.091(5)     46828.     0.0885     0.0000 
   15260.594    4.5066     0.092(5)     47666.     0.0885     0.0000 
   15291.141    4.5156     0.096(5)     45516.     0.0885     0.0000 
   15321.75     4.5247     0.089(5)     48264.     0.0885     0.0000 
   15352.422    4.5337     0.091(5)     46275.     0.0886     0.0000 
   15383.172    4.5428     0.101(5)     40634.     0.0886     0.0000 
   15413.969    4.5519     0.094(5)     42084.     0.0886     0.0000 
   15444.813    4.5610     0.100(5)     39071.     0.0886     0.0000 
   15475.734    4.5701     0.102(5)     40335.     0.0886     0.0000 
   15506.719    4.5793     0.107(5)     35687.     0.0886     0.0000 
   15537.766    4.5885     0.099(5)     42012.     0.0886     0.0000 
   15568.875    4.5977     0.094(5)     48453.     0.0887     0.0000 
   15600.047    4.6069     0.090(5)     46806.     0.0887     0.0000 
   15631.281    4.6161     0.088(5)     44765.     0.0887     0.0000 
   15662.563    4.6253     0.087(5)     44823.     0.0887     0.0000 
   15693.922    4.6346     0.091(5)     41971.     0.0887     0.0000 
   15725.344    4.6439     0.082(5)     47728.     0.0888     0.0000 
   15756.828    4.6532     0.077(4)     53049.     0.0888     0.0000 
   15788.375    4.6625     0.086(5)     45789.     0.0888     0.0000 
   15819.984    4.6719     0.089(5)     44539.     0.0888     0.0000 
   15851.656    4.6812     0.099(5)     38737.     0.0888     0.0000 
   15883.391    4.6906     0.092(5)     43374.     0.0889     0.0000 
   15915.188    4.7000     0.094(5)     39092.     0.0889     0.0000 
   15947.047    4.7094     0.091(5)     42648.     0.0889     0.0000 
   15978.969    4.7188     0.087(5)     43573.     0.0889     0.0000 
   16010.953    4.7283     0.095(5)     38100.     0.0889     0.0000 
   16043.016    4.7378     0.095(5)     39885.     0.0890     0.0000 
   16075.141    4.7472     0.092(5)     41843.     0.0890     0.0000 
   16107.328    4.7568     0.086(5)     43487.     0.0890     0.0000 
   16139.578    4.7663     0.089(5)     40808.     0.0890     0.0000 
   16171.891    4.7758     0.086(5)     41589.     0.0890     0.0000 
   16204.266    4.7854     0.085(5)     44512.     0.0891     0.0000 
   16236.703    4.7950     0.088(5)     43598.     0.0891     0.0000 
   16269.203    4.8046     0.093(5)     37541.     0.0891     0.0000 
   16301.766    4.8142     0.095(5)     36416.     0.0891     0.0000 
   16334.406    4.8238     0.091(5)     37857.     0.0891     0.0000 
   16367.109    4.8335     0.094(5)     38896.     0.0892     0.0000 
   16399.875    4.8432     0.092(5)     39691.     0.0892     0.0000 
   16432.703    4.8529     0.093(5)     40009.     0.0892     0.0000 
   16465.594    4.8626     0.093(5)     37672.     0.0892     0.0000 
   16498.563    4.8724     0.104(5)     33950.     0.0892     0.0000 
   16531.594    4.8821     0.101(6)     31939.     0.0892     0.0000 
   16564.688    4.8919     0.096(5)     35625.     0.0892     0.0000 
   16597.859    4.9017     0.089(5)     40680.     0.0893     0.0000 
   16631.094    4.9115     0.095(5)     34776.     0.0893     0.0000 
   16664.391    4.9214     0.089(5)     35368.     0.0893     0.0000 
   16697.75     4.9312     0.094(5)     35038.     0.0893     0.0000 
   16731.172    4.9411     0.093(5)     35836.     0.0893     0.0000 
   16764.672    4.9510     0.081(5)     41600.     0.0893     0.0000 
   16798.234    4.9609     0.087(5)     36935.     0.0893     0.0000 
   16831.859    4.9708     0.088(5)     37673.     0.0893     0.0000 
   16865.563    4.9808     0.088(5)     38818.     0.0893     0.0000 
   16899.328    4.9908     0.089(5)     37779.     0.0893     0.0000 
   16933.156    5.0008     0.093(5)     35814.     0.0893     0.0000 
   16967.063    5.0108     0.094(6)     32866.     0.0893     0.0000 
   17001.031    5.0208     0.092(5)     35639.     0.0893     0.0000 
   17035.063    5.0309     0.095(5)     33251.     0.0893     0.0000 
   17069.172    5.0410     0.086(5)     38490.     0.0893     0.0000 
   17103.344    5.0511     0.091(5)     33857.     0.0892     0.0000 
   17137.578    5.0612     0.108(6)     28129.     0.0892     0.0000 
   17171.891    5.0713     0.130(6)     24041.     0.0892     0.0000 
   17206.266    5.0815     0.161(7)     20331.     0.0892     0.0000 
   17240.719    5.0917     0.214(8)     14143.     0.0892     0.0000 
   17275.234    5.1018     0.262(10)    10773.     0.0891     0.0000 
   17309.813    5.1121     0.262(9)     11715.     0.0891     0.0000 
   17344.469    5.1223     0.255(9)     12361.     0.0891     0.0000 
   17379.188    5.1326     0.218(8)     15991.     0.0891     0.0000 
   17413.984    5.1428     0.183(8)     17606.     0.0890     0.0000 
   17448.859    5.1532     0.153(7)     20299.     0.0890     0.0000 
   17483.797    5.1635     0.119(6)     26429.     0.0889     0.0000 
   17518.797    5.1738     0.110(6)     27987.     0.0889     0.0000 
   17553.859    5.1842     0.100(6)     28466.     0.0889     0.0000 
   17589.0      5.1946     0.092(6)     32562.     0.0888     0.0000 
   17624.219    5.2050     0.093(6)     29975.     0.0888     0.0000 
   17659.5      5.2154     0.087(6)     32493.     0.0887     0.0000 
   17694.844    5.2258     0.087(6)     32876.     0.0887     0.0000 
   17730.266    5.2363     0.092(6)     31640.     0.0886     0.0000 
   17765.766    5.2468     0.086(5)     33475.     0.0886     0.0000 
   17801.344    5.2573     0.083(5)     34716.     0.0885     0.0000 
   17836.984    5.2678     0.090(6)     29415.     0.0885     0.0000 
   17872.688    5.2784     0.089(6)     30531.     0.0884     0.0000 
   17908.469    5.2890     0.089(6)     29082.     0.0883     0.0000 
   17944.328    5.2996     0.094(6)     29629.     0.0883     0.0000 
   17980.25     5.3102     0.088(6)     32482.     0.0882     0.0000 
   18016.234    5.3208     0.083(6)     32849.     0.0881     0.0000 
   18052.313    5.3315     0.087(6)     29905.     0.0881     0.0000 
   18088.453    5.3422     0.080(5)     33617.     0.0880     0.0000 
   18124.656    5.3529     0.085(6)     28748.     0.0879     0.0000 
   18160.953    5.3636     0.086(6)     30648.     0.0879     0.0000 
   18197.313    5.3743     0.089(6)     29082.     0.0878     0.0000 
   18233.734    5.3851     0.085(6)     32530.     0.0877     0.0000 
   18270.234    5.3959     0.089(6)     28897.     0.0876     0.0000 
   18306.813    5.4067     0.086(6)     30359.     0.0876     0.0000 
   18343.469    5.4175     0.090(6)     28244.     0.0875     0.0000 
   18380.188    5.4284     0.084(6)     28602.     0.0874     0.0000 
   18416.984    5.4393     0.087(6)     29068.     0.0873     0.0000 
   18453.859    5.4501     0.087(6)     29439.     0.0873     0.0000 
   18490.813    5.4611     0.077(5)     33584.     0.0872     0.0000 
   18527.828    5.4720     0.092(6)     26706.     0.0871     0.0000 
   18564.906    5.4830     0.097(6)     24809.     0.0871     0.0000 
   18602.078    5.4940     0.095(6)     25450.     0.0870     0.0000 
   18639.328    5.5050     0.093(6)     26297.     0.0869     0.0000 
   18676.641    5.5160     0.083(6)     31774.     0.0869     0.0000 
   18714.031    5.5270     0.085(6)     29764.     0.0868     0.0000 
   18751.5      5.5381     0.086(6)     28051.     0.0867     0.0000 
   18789.047    5.5492     0.087(6)     26763.     0.0867     0.0000 
   18826.656    5.5603     0.088(6)     26415.     0.0866     0.0000 
   18864.344    5.5715     0.086(6)     27729.     0.0866     0.0000 
   18902.109    5.5826     0.078(6)     30008.     0.0865     0.0000 
   18939.953    5.5938     0.081(6)     27186.     0.0865     0.0000 
   18977.875    5.6050     0.093(7)     22397.     0.0864     0.0000 
   19015.859    5.6162     0.087(6)     26168.     0.0864     0.0000 
   19053.938    5.6275     0.086(6)     26208.     0.0864     0.0000 
   19092.094    5.6388     0.086(6)     25810.     0.0864     0.0000 
   19130.313    5.6501     0.082(6)     26180.     0.0864     0.0000 
   19168.609    5.6614     0.085(6)     24216.     0.0864     0.0000 
   19206.984    5.6727     0.090(7)     22040.     0.0864     0.0000 
   19245.438    5.6841     0.088(6)     24474.     0.0864     0.0000 
   19283.969    5.6955     0.088(6)     25817.     0.0864     0.0000 
   19322.563    5.7069     0.094(7)     22818.     0.0864     0.0000 
   19361.25     5.7183     0.081(6)     25682.     0.0865     0.0000 
   19400.016    5.7298     0.080(6)     26418.     0.0865     0.0000 
   19438.844    5.7413     0.084(6)     23950.     0.0866     0.0000 
   19477.766    5.7528     0.090(7)     23593.     0.0867     0.0000 
   19516.766    5.7643     0.094(7)     22227.     0.0868     0.0000 
   19555.844    5.7758     0.086(6)     24453.     0.0869     0.0000 
   19595.0      5.7874     0.100(7)     19174.     0.0870     0.0000 
   19634.219    5.7990     0.089(7)     21757.     0.0871     0.0000 
   19673.516    5.8106     0.091(7)     21552.     0.0873     0.0000 
   19712.906    5.8223     0.082(7)     22814.     0.0874     0.0000 
   19752.375    5.8339     0.080(6)     23826.     0.0876     0.0000 
   19791.922    5.8456     0.083(7)     23244.     0.0878     0.0000 
   19831.547    5.8573     0.089(7)     20246.     0.0880     0.0000 
   19871.25     5.8691     0.092(7)     20401.     0.0883     0.0000 
   19911.031    5.8808     0.094(7)     20883.     0.0885     0.0000 
   19950.891    5.8926     0.089(7)     20125.     0.0888     0.0000 
   19990.828    5.9044     0.094(7)     18394.     0.0891     0.0000 
   20030.844    5.9162     0.090(7)      0.0       0.0895   ?        
   20070.953    5.9281     0.090(7)      0.0       0.0898   ?        
   20111.141    5.9400     0.089(7)      0.0       0.0902   ?        
   20151.406    5.9519     0.081(7)      0.0       0.0906   ?        
   20191.75     5.9638     0.075(7)      0.0       0.0911   ?        
   20232.172    5.9757     0.091(8)      0.0       0.0915   ?        
   20272.672    5.9877     0.081(7)      0.0       0.0920   ?        
   20313.25     5.9997     0.093(7)      0.0       0.0926   ?        
   20353.922    6.0117     0.083(7)      0.0       0.0931   ?        
   20394.672    6.0238     0.083(7)      0.0       0.0937   ?        
   20435.5      6.0358     0.090(7)      0.0       0.0944   ?        
   20476.422    6.0479     0.083(7)      0.0       0.0950   ?        
   20517.422    6.0601     0.091(8)      0.0       0.0957   ?        
   20558.484    6.0722     0.099(8)      0.0       0.0965   ?        
   20599.641    6.0844     0.087(7)      0.0       0.0973   ?        
   20640.891    6.0966     0.076(7)      0.0       0.0981   ?        
   20682.203    6.1088     0.086(8)      0.0       0.0989   ?        
   20723.609    6.1210     0.088(8)      0.0       0.0999   ?        
   20765.109    6.1333     0.091(8)      0.0       0.1008   ?        
   20806.672    6.1456     0.094(8)      0.0       0.1018   ?        
   20848.328    6.1579     0.109(9)      0.0       0.1029   ?        
   20890.078    6.1702     0.096(8)      0.0       0.1040   ?        
   20931.891    6.1826     0.090(8)      0.0       0.1051   ?        
   20973.797    6.1950     0.092(8)      0.0       0.1063   ?        
   21015.797    6.2074     0.086(8)      0.0       0.1075   ?        
   21057.859    6.2198     0.097(8)      0.0       0.1088   ?        
   21100.016    6.2323     0.094(8)      0.0       0.1102   ?        
   21142.266    6.2448     0.091(8)      0.0       0.1116   ?        
   21184.594    6.2573     0.089(8)      0.0       0.1131   ?        
   21227.0      6.2698     0.097(8)      0.0       0.1146   ?        
   21269.484    6.2824     0.099(9)      0.0       0.1162   ?        
   21312.063    6.2950     0.085(8)      0.0       0.1179   ?        
   21354.734    6.3076     0.087(8)      0.0       0.1196   ?        
   21397.484    6.3202     0.104(10)     0.0       0.1214   ?        
   21440.328    6.3329     0.099(9)      0.0       0.1232   ?        
   21483.266    6.3456     0.090(8)      0.0       0.1251   ?        
   21526.266    6.3583     0.084(8)      0.0       0.1271   ?        
   21569.359    6.3710     0.090(8)      0.0       0.1291   ?        
   21612.547    6.3838     0.087(8)      0.0       0.1312   ?        
   21655.813    6.3966     0.095(9)      0.0       0.1334   ?        
   21699.172    6.4094     0.086(8)      0.0       0.1357   ?        
   21742.609    6.4222     0.091(9)      0.0       0.1380   ?        
   21786.125    6.4351     0.099(10)     0.0       0.1404   ?        
   21829.75     6.4480     0.087(9)      0.0       0.1429   ?        
   21873.453    6.4609     0.089(9)      0.0       0.1454   ?        
   21917.234    6.4739     0.077(8)      0.0       0.1481   ?        
   21961.125    6.4868     0.084(9)      0.0       0.1508   ?        
   22005.094    6.4998     0.089(9)      0.0       0.1535   ?        
   22049.141    6.5128     0.087(9)      0.0       0.1564   ?        
   22093.281    6.5259     0.092(9)      0.0       0.1593   ?        
   22137.516    6.5390     0.095(9)      0.0       0.1623   ?        
   22181.844    6.5521     0.082(9)      0.0       0.1654   ?        
   22226.25     6.5652     0.101(10)     0.0       0.1686   ?        
   22270.734    6.5784     0.090(9)      0.0       0.1718   ?        
   22315.328    6.5915     0.085(9)      0.0       0.1751   ?        
   22360.016    6.6048     0.093(9)      0.0       0.1785   ?        
   22404.766    6.6180     0.089(9)      0.0       0.1820   ?        
   22449.609    6.6312     0.094(10)     0.0       0.1855   ?        
   22494.563    6.6445     0.096(10)     0.0       0.1891   ?        
   22539.594    6.6578     0.109(11)     0.0       0.1928   ?        
   22584.719    6.6712     0.092(9)      0.0       0.1966   ?        
   22629.938    6.6846     0.098(10)     0.0       0.2004   ?        
   22675.234    6.6979     0.096(10)     0.0       0.2043   ?        
   22720.641    6.7114     0.086(9)      0.0       0.2083   ?        
   22766.141    6.7248     0.091(10)     0.0       0.2123   ?        
   22811.703    6.7383     0.110(11)     0.0       0.2164   ?        
   22857.359    6.7518     0.099(10)     0.0       0.2206   ?        
   22903.125    6.7653     0.100(11)     0.0       0.2248   ?        
   22948.984    6.7789     0.102(11)     0.0       0.2290   ?        
   22994.938    6.7925     0.088(10)     0.0       0.2334   ?        
   23040.969    6.8061     0.088(10)     0.0       0.2377   ?        
   23087.094    6.8197     0.098(11)     0.0       0.2421   ?        
   23133.313    6.8334     0.090(10)     0.0       0.2466   ?        
   23179.625    6.8471     0.082(9)      0.0       0.2510   ?        
   23226.031    6.8608     0.097(11)     0.0       0.2555   ?        
   23272.531    6.8745     0.094(11)     0.0       0.2601   ?        
   23319.125    6.8883     0.080(10)     0.0       0.2646   ?        
   23365.813    6.9021     0.095(11)     0.0       0.2692   ?        
   23412.594    6.9160     0.086(11)     0.0       0.2737   ?        
   23459.453    6.9298     0.102(12)     0.0       0.2783   ?        
   23506.422    6.9437     0.087(10)     0.0       0.2828   ?        
   23553.484    6.9576     0.087(11)     0.0       0.2873   ?        
   23600.641    6.9716     0.095(11)     0.0       0.2918   ?        
   23647.891    6.9855     0.086(11)     0.0       0.2962   ?        
   23695.234    6.9995     0.094(11)     0.0       0.3006   ?        
   23742.672    7.0135     0.085(11)     0.0       0.3050   ?        
   23790.203    7.0276     0.083(11)     0.0       0.3093   ?        
   23837.828    7.0417     0.093(12)     0.0       0.3134   ?        
   23885.547    7.0558     0.090(12)     0.0       0.3175   ?        
   23933.375    7.0699     0.083(11)     0.0       0.3215   ?        
   23981.297    7.0841     0.090(11)     0.0       0.3254   ?        
   24029.297    7.0983     0.095(12)     0.0       0.3291   ?        
   24077.391    7.1125     0.105(13)     0.0       0.3326   ?        
   24125.594    7.1268     0.090(12)     0.0       0.3360   ?        
   24173.891    7.1411     0.078(11)     0.0       0.3392   ?        
   24222.297    7.1554     0.080(12)     0.0       0.3422   ?        
   24270.797    7.1697     0.076(11)     0.0       0.3449   ?        
   24319.375    7.1841     0.086(12)     0.0       0.3475   ?        
   24368.063    7.1985     0.090(12)     0.0       0.3497   ?        
   24416.859    7.2129     0.108(14)     0.0       0.3516   ?        
   24465.75     7.2274     0.107(14)     0.0       0.3533   ?        
   24514.719    7.2418     0.117(14)     0.0       0.3545   ?        
   24563.797    7.2563     0.134(16)     0.0       0.3555   ?        
   24612.984    7.2709     0.165(18)     0.0       0.3560   ?        
   24662.25     7.2855     0.230(21)     0.0       0.3561   ?        
   24711.625    7.3001     0.320(25)     0.0       0.3557   ?        
   24761.094    7.3147     0.408(28)     0.0       0.3549   ?        
   24810.656    7.3293     0.447(30)     0.0       0.3535   ?        
   24860.328    7.3440     0.466(31)     0.0       0.3515   ?        
   24910.109    7.3588     0.484(32)     0.0       0.3490   ?        
   24959.984    7.3735     0.395(30)     0.0       0.3459   ?        
   25009.953    7.3883     0.372(29)     0.0       0.3420   ?        
   25060.031    7.4031     0.314(27)     0.0       0.3375   ?        
   25110.203    7.4179     0.278(26)     0.0       0.3322   ?        
   25160.469    7.4328     0.180(21)     0.0       0.3261   ?        
   25210.828    7.4477     0.139(19)     0.0       0.3191   ?        
   25261.297    7.4626     0.129(18)     0.0       0.3113   ?        
   25311.875    7.4776     0.101(15)     0.0       0.3025   ?        
   25362.547    7.4925     0.059(12)     0.0       0.2927   ?        
   25413.328    7.5076     0.093(15)     0.0       0.2818   ?        
   25464.203    7.5226     0.101(16)     0.0       0.2698   ?        
   25515.172    7.5377     0.097(16)     0.0       0.2566   ?        
   25566.266    7.5528     0.063(13)     0.0       0.2422   ?        
   25617.453    7.5679     0.058(12)     0.0       0.2264   ?        
   25668.734    7.5831     0.071(14)     0.0       0.2093   ?        
   25720.125    7.5983     0.090(17)     0.0       0.1907   ?        
   25771.609    7.6135     0.122(19)     0.0       0.1706   ?        
   25823.203    7.6288     0.082(16)     0.0       0.1489   ?        
   25874.906    7.6441     0.089(18)     0.0       0.1255   ?        
   25926.703    7.6594     0.114(21)     0.0       0.1003   ?        
   25978.609    7.6747     0.119(22)     0.0       0.0732   ?        
   26030.625    7.6901     0.115(23)     0.0       0.0442   ?        
   26082.734    7.7055     0.072(16)     0.0       0.0131   ?        
   26134.953    7.7210     0.090(19)     0.0      -0.0201   ?        
   26187.281    7.7364     0.087(19)     0.0      -0.0556   ?        
   26239.703    7.7520     0.103(20)     0.0      -0.0934   ?        
   26292.234    7.7675     0.099(21)     0.0      -0.1337   ?        
   26344.875    7.7831     0.081(20)     0.0      -0.1766   ?        
   26397.609    7.7987     0.096(21)     0.0      -0.2222   ?        
   26450.453    7.8143     0.110(23)     0.0      -0.2707   ?        
   26503.406    7.8299     0.079(20)     0.0      -0.3221   ?        
   26556.469    7.8456     0.076(21)     0.0      -0.3766   ?        
   26609.641    7.8614     0.112(25)     0.0      -0.4344   ?        
   26662.922    7.8771     0.108(26)     0.0      -0.4955   ?        
   26716.297    7.8929     0.057(18)     0.0      -0.5602   ?        
   26769.781    7.9087     0.076(21)     0.0      -0.6285   ?        
   26823.375    7.9246     0.087(25)     0.0      -0.7008   ?        
   26877.063    7.9405     0.081(24)     0.0      -0.7770   ?        
   26930.875    7.9564     0.084(24)     0.0      -0.8574   ?        
   26984.797    7.9723     0.056(20)     0.0      -0.9422   ?        
   27038.828    7.9883     0.073(24)     0.0      -1.0316   ?        
   27092.969    8.0043     0.113(31)     0.0      -1.1257   ?        
_pd_meas_number_of_points              1153
_pd_proc_number_of_points              1153

loop_
      _pd_refln_index_h
      _pd_refln_index_k
      _pd_refln_index_l
      _pd_refln_phase_id
      _refln_observed_status
      _refln_F_squared_calc
      _refln_F_squared_meas
      _refln_phase_calc
      _pd_refln_i100_meas
_reflns_number_observed                0
_reflns_limit_h_min                    0
_reflns_limit_h_max                    4
_reflns_limit_k_min                    0
_reflns_limit_k_max                    16
_reflns_limit_l_min                    -11
_reflns_limit_l_max                    12
_reflns_d_resolution_high              9999.000
_reflns_d_resolution_low               0.000
data_BL2810_p_03

_pd_block_id
     Mar 14 12:14:49 |POWSET_03||  rotax                                 
#_pd_meas_datetime_initiated           ?
#_pd_meas_info_author_name             ?
#_pd_meas_info_author_email            ?
#_pd_meas_info_author_address          ?
#_pd_meas_info_author_telephone        ?
#_diffrn_ambient_temperature           ?
#_diffrn_ambient_environment           ?
#_diffrn_ambient_pressure              ?
#_diffrn_radiation_source              ?
#_diffrn_radiation_detector            ?
loop_  _pd_phase_id
_pd_phase_block_id      Mar 14 12:14:49 |PHASE_1||
_pd_phase_block_id      Mar 14 12:14:49 |PHASE_2||
_pd_instr_radiation_probe              neutron
_pd_proc_ls_prof_R_factor              0.0257
_pd_proc_ls_prof_wR_factor             0.0217
_pd_proc_ls_prof_wR_expected           0.0149
_pd_proc_info_datetime                 "Mar 14 12:14:49 2003"
_pd_calc_method                        "Rietveld Refinement"

loop_
      _pd_meas_time_of_flight
      _pd_proc_d_spacing
      _pd_meas_intensity_total
      _pd_proc_ls_weight
      _pd_proc_intensity_calc_bkg
      _pd_calc_intensity_total
   4009.313     0.59958    0.371(6)     0.0      0.3238  ?       
   4013.313     0.60018    0.375(6)    26015.    0.3237    0.0000
   4017.328     0.60078    0.381(6)    25389.    0.3237    0.0000
   4021.359     0.60139    0.398(6)    24604.    0.3237    0.0000
   4025.375     0.60199    0.402(7)    23669.    0.3237    0.0000
   4029.391     0.60259    0.395(6)    24604.    0.3236    0.0000
   4033.422     0.60319    0.402(6)    24226.    0.3236    0.0000
   4037.469     0.60379    0.403(6)    24227.    0.3236    0.0000
   4041.516     0.60440    0.410(6)    23856.    0.3236    0.0000
   4045.547     0.60500    0.402(6)    24040.    0.3235    0.0000
   4049.594     0.60561    0.399(6)    24794.    0.3235    0.0000
   4053.656     0.60621    0.403(6)    24227.    0.3235    0.0000
   4057.703     0.60682    0.404(6)    24040.    0.3235    0.0000
   4061.75      0.60742    0.395(6)    24603.    0.3234    0.0000
   4065.828     0.60803    0.391(6)    25373.    0.3234    0.0000
   4069.906     0.60864    0.395(6)    24603.    0.3234    0.0000
   4073.969     0.60925    0.392(6)    24987.    0.3234    0.0000
   4078.047     0.60986    0.389(6)    25373.    0.3233    0.0000
   4082.125     0.61047    0.403(6)    24043.    0.3233    0.0000
   4086.203     0.61108    0.401(6)    24602.    0.3233    0.0000
   4090.297     0.61169    0.400(6)    24414.    0.3233    0.0000
   4094.391     0.61230    0.399(6)    24602.    0.3233    0.0000
   4098.484     0.61292    0.394(6)    24791.    0.3232    0.0000
   4102.578     0.61353    0.400(6)    24791.    0.3232    0.0000
   4106.688     0.61414    0.398(6)    24600.    0.3232    0.0000
   4110.797     0.61476    0.408(6)    24229.    0.3232    0.0000
   4114.906     0.61537    0.410(6)    24230.    0.3231    0.0000
   4119.031     0.61599    0.394(6)    25171.    0.3231    0.0000
   4123.156     0.61660    0.397(6)    24788.    0.3231    0.0000
   4127.281     0.61722    0.392(6)    25171.    0.3231    0.0000
   4131.406     0.61784    0.385(6)    25563.    0.3231    0.0000
   4135.531     0.61845    0.390(6)    25171.    0.3230    0.0000
   4139.672     0.61907    0.383(6)    26154.    0.3230    0.0000
   4143.813     0.61969    0.380(6)    25762.    0.3230    0.0000
   4147.953     0.62031    0.373(6)    26566.    0.3230    0.0000
   4152.109     0.62093    0.368(6)    26987.    0.3229    0.0000
   4156.266     0.62155    0.365(6)    27202.    0.3229    0.0000
   4160.422     0.62217    0.367(6)    26987.    0.3229    0.0000
   4164.578     0.62280    0.364(6)    27419.    0.3229    0.0000
   4168.75      0.62342    0.363(6)    27613.    0.3229    0.0000
   4172.922     0.62404    0.375(6)    26566.    0.3228    0.0000
   4177.094     0.62467    0.377(6)    26549.    0.3228    0.0000
   4181.281     0.62529    0.390(6)    25741.    0.3228    0.0000
   4185.469     0.62592    0.391(6)    25545.    0.3228    0.0000
   4189.656     0.62654    0.388(6)    25741.    0.3228    0.0000
   4193.844     0.62717    0.388(6)    25940.    0.3227    0.0000
   4198.031     0.62780    0.383(6)    25940.    0.3227    0.0000
   4202.234     0.62843    0.371(6)    27157.    0.3227    0.0000
   4206.453     0.62906    0.370(6)    27157.    0.3227    0.0000
   4210.656     0.62968    0.378(6)    26549.    0.3227    0.0000
   4214.859     0.63031    0.389(6)    25731.    0.3226    0.0000
   4219.078     0.63094    0.397(6)    25344.    0.3226    0.0000
   4223.297     0.63157    0.418(6)    24234.    0.3226    0.0000
   4227.531     0.63221    0.404(6)    25148.    0.3226    0.0000
   4231.766     0.63284    0.394(6)    25536.    0.3226    0.0000
   4236.0       0.63347    0.401(6)    25148.    0.3225    0.0000
   4240.234     0.63411    0.400(6)    25344.    0.3225    0.0000
   4244.469     0.63474    0.397(6)    25337.    0.3225    0.0000
   4248.719     0.63537    0.389(6)    25916.    0.3225    0.0000
   4252.969     0.63601    0.382(6)    26313.    0.3225    0.0000
   4257.219     0.63665    0.386(6)    26114.    0.3224    0.0000
   4261.484     0.63728    0.390(6)    26101.    0.3224    0.0000
   4265.75      0.63792    0.391(6)    25721.    0.3224    0.0000
   4270.016     0.63856    0.382(6)    26499.    0.3224    0.0000
   4274.297     0.63920    0.383(6)    26499.    0.3224    0.0000
   4278.578     0.63984    0.389(6)    25905.    0.3223    0.0000
   4282.859     0.64048    0.392(6)    25905.    0.3223    0.0000
   4287.141     0.64112    0.396(6)    25330.    0.3223    0.0000
   4291.422     0.64176    0.399(6)    25519.    0.3223    0.0000
   4295.719     0.64240    0.372(6)    27301.    0.3223    0.0000
   4300.016     0.64304    0.378(6)    26907.    0.3222    0.0000
   4304.313     0.64369    0.382(6)    26684.    0.3222    0.0000
   4308.625     0.64433    0.376(6)    27301.    0.3222    0.0000
   4312.938     0.64497    0.383(6)    26483.    0.3222    0.0000
   4317.25      0.64562    0.395(6)    25701.    0.3222    0.0000
   4321.563     0.64626    0.390(6)    26088.    0.3221    0.0000
   4325.891     0.64691    0.396(6)    25882.    0.3221    0.0000
   4330.219     0.64756    0.405(6)    25137.    0.3221    0.0000
   4334.547     0.64821    0.403(6)    25317.    0.3221    0.0000
   4338.891     0.64885    0.382(6)    26868.    0.3221    0.0000
   4343.234     0.64950    0.373(6)    27487.    0.3220    0.0000
   4347.578     0.65015    0.364(6)    27911.    0.3220    0.0000
   4351.922     0.65080    0.363(6)    28127.    0.3220    0.0000
   4356.281     0.65145    0.357(6)    28979.    0.3220    0.0000
   4360.641     0.65211    0.351(6)    29246.    0.3220    0.0000
   4365.0       0.65276    0.362(6)    28755.    0.3220    0.0000
   4369.375     0.65341    0.370(6)    27672.    0.3219    0.0000
   4373.75      0.65407    0.374(6)    27672.    0.3219    0.0000
   4378.125     0.65472    0.376(6)    27256.    0.3219    0.0000
   4382.5       0.65537    0.384(6)    26849.    0.3219    0.0000
   4386.875     0.65603    0.384(6)    26849.    0.3219    0.0000
   4391.266     0.65668    0.384(6)    27031.    0.3218    0.0000
   4395.656     0.65734    0.398(6)    25871.    0.3218    0.0000
   4400.047     0.65800    0.388(6)    26831.    0.3218    0.0000
   4404.453     0.65866    0.377(6)    27439.    0.3218    0.0000
   4408.859     0.65931    0.392(6)    26632.    0.3218    0.0000
   4413.266     0.65997    0.403(6)    25487.    0.3218    0.0000
   4417.688     0.66063    0.418(6)    25117.    0.3217    0.0000
   4422.109     0.66130    0.439(7)    23571.    0.3217    0.0000
   4426.531     0.66196    0.436(6)    24074.    0.3217    0.0000
   4430.969     0.66262    0.427(6)    24587.    0.3217    0.0000
   4435.406     0.66328    0.410(6)    25479.    0.3217    0.0000
   4439.844     0.66395    0.409(6)    25850.    0.3216    0.0000
   4444.281     0.66461    0.397(6)    26229.    0.3216    0.0000
   4448.719     0.66527    0.398(6)    26421.    0.3216    0.0000
   4453.172     0.66594    0.383(6)    27393.    0.3216    0.0000
   4457.641     0.66661    0.387(6)    27192.    0.3216    0.0000
   4462.094     0.66727    0.392(6)    26616.    0.3215    0.0000
   4466.547     0.66794    0.381(6)    27597.    0.3215    0.0000
   4471.016     0.66861    0.376(6)    28012.    0.3215    0.0000
   4475.5       0.66928    0.368(6)    29055.    0.3215    0.0000
   4479.984     0.66995    0.369(6)    28653.    0.3215    0.0000
   4484.453     0.67062    0.368(6)    28653.    0.3215    0.0000
   4488.938     0.67129    0.378(6)    27985.    0.3214    0.0000
   4493.438     0.67196    0.381(6)    27778.    0.3214    0.0000
   4497.938     0.67263    0.402(6)    26392.    0.3214    0.0000
   4502.438     0.67330    0.410(6)    25829.    0.3214    0.0000
   4506.938     0.67398    0.409(6)    26015.    0.3214    0.0000
   4511.438     0.67465    0.407(6)    26202.    0.3213    0.0000
   4515.953     0.67532    0.386(6)    27549.    0.3213    0.0000
   4520.484     0.67600    0.387(6)    27549.    0.3213    0.0000
   4525.0       0.67668    0.369(6)    28619.    0.3213    0.0000
   4529.516     0.67735    0.365(6)    29238.    0.3213    0.0000
   4534.047     0.67803    0.371(6)    28801.    0.3213    0.0000
   4538.594     0.67871    0.359(6)    30095.    0.3212    0.0000
   4543.141     0.67939    0.369(6)    28801.    0.3212    0.0000
   4547.688     0.68007    0.378(6)    28344.    0.3212    0.0000
   4552.234     0.68075    0.387(6)    27349.    0.3212    0.0000
   4556.781     0.68143    0.376(6)    28555.    0.3212    0.0000
   4561.344     0.68211    0.381(6)    28136.    0.3211    0.0000
   4565.906     0.68279    0.375(6)    28555.    0.3211    0.0000
   4570.469     0.68347    0.384(6)    27931.    0.3211    0.0000
   4575.047     0.68416    0.372(6)    28947.    0.3211    0.0000
   4579.625     0.68484    0.375(6)    28555.    0.3211    0.0000
   4584.203     0.68553    0.375(6)    28523.    0.3210    0.0000
   4588.797     0.68621    0.380(6)    28315.    0.3210    0.0000
   4593.391     0.68690    0.387(6)    27904.    0.3210    0.0000
   4597.984     0.68759    0.391(6)    27503.    0.3210    0.0000
   4602.578     0.68828    0.415(6)    25980.    0.3210    0.0000
   4607.188     0.68896    0.420(6)    25611.    0.3209    0.0000
   4611.797     0.68965    0.425(6)    25266.    0.3209    0.0000
   4616.406     0.69034    0.428(6)    25260.    0.3209    0.0000
   4621.031     0.69103    0.429(6)    25435.    0.3209    0.0000
   4625.656     0.69173    0.439(6)    24917.    0.3209    0.0000
   4630.281     0.69242    0.458(7)    23610.    0.3209    0.0000
   4634.906     0.69311    0.479(7)    22696.    0.3208    0.0000
   4639.547     0.69380    0.494(7)    21989.    0.3208    0.0000
   4644.188     0.69450    0.486(7)    22403.    0.3208    0.0000
   4648.828     0.69519    0.485(7)    22561.    0.3208    0.0000
   4653.484     0.69589    0.467(7)    23306.    0.3208    0.0000
   4658.141     0.69658    0.468(7)    23306.    0.3207    0.0000
   4662.797     0.69728    0.453(6)    24090.    0.3207    0.0000
   4667.469     0.69798    0.444(6)    24743.    0.3207    0.0000
   4672.141     0.69867    0.428(6)    25603.    0.3207    0.0000
   4676.813     0.69937    0.410(6)    26676.    0.3207    0.0000
   4681.5       0.70007    0.420(6)    26127.    0.3206    0.0000
   4686.188     0.70077    0.412(6)    26491.    0.3206    0.0000
   4690.875     0.70148    0.413(6)    26676.    0.3206    0.0000
   4695.563     0.70218    0.420(6)    26127.    0.3206    0.0000
   4700.25      0.70288    0.432(6)    25421.    0.3206    0.0000
   4704.953     0.70358    0.432(6)    25414.    0.3205    0.0000
   4709.672     0.70429    0.454(6)    24414.    0.3205    0.0000
   4714.391     0.70499    0.458(6)    24253.    0.3205    0.0000
   4719.109     0.70570    0.447(6)    24741.    0.3205    0.0000
   4723.828     0.70640    0.447(6)    24741.    0.3204    0.0000
   4728.547     0.70711    0.438(6)    25074.    0.3204    0.0000
   4733.281     0.70781    0.436(6)    25578.    0.3204    0.0000
   4738.016     0.70852    0.448(6)    24741.    0.3204    0.0000
   4742.75      0.70923    0.454(6)    24414.    0.3204    0.0000
   4747.5       0.70994    0.461(6)    24096.    0.3203    0.0000
   4752.25      0.71065    0.473(7)    23478.    0.3203    0.0000
   4757.0       0.71136    0.477(7)    23478.    0.3203    0.0000
   4761.766     0.71207    0.474(7)    23635.    0.3203    0.0000
   4766.531     0.71279    0.484(7)    22884.    0.3203    0.0000
   4771.297     0.71350    0.479(7)    23334.    0.3202    0.0000
   4776.078     0.71421    0.471(6)    23788.    0.3202    0.0000
   4780.859     0.71493    0.453(6)    24900.    0.3202    0.0000
   4785.641     0.71564    0.443(6)    25400.    0.3202    0.0000
   4790.422     0.71636    0.430(6)    26092.    0.3201    0.0000
   4795.203     0.71707    0.428(6)    26269.    0.3201    0.0000
   4800.0       0.71779    0.427(6)    26613.    0.3201    0.0000
   4804.813     0.71851    0.417(6)    27350.    0.3201    0.0000
   4809.625     0.71923    0.404(6)    27923.    0.3201    0.0000
   4814.438     0.71995    0.398(6)    28315.    0.3200    0.0000
   4819.25      0.72067    0.394(6)    29123.    0.3200    0.0000
   4824.063     0.72139    0.395(6)    28514.    0.3200    0.0000
   4828.891     0.72211    0.381(6)    29713.    0.3200    0.0000
   4833.734     0.72283    0.376(6)    30358.    0.3199    0.0000
   4838.563     0.72355    0.388(6)    29541.    0.3199    0.0000
   4843.391     0.72428    0.387(6)    29503.    0.3199    0.0000
   4848.25      0.72500    0.383(6)    29885.    0.3199    0.0000
   4853.109     0.72573    0.391(6)    29089.    0.3199    0.0000
   4857.953     0.72645    0.385(6)    29926.    0.3198    0.0000
   4862.813     0.72718    0.374(6)    30751.    0.3198    0.0000
   4867.688     0.72791    0.379(6)    30098.    0.3198    0.0000
   4872.563     0.72864    0.390(6)    29674.    0.3198    0.0000
   4877.438     0.72937    0.381(6)    30313.    0.3197    0.0000
   4882.313     0.73009    0.384(6)    29885.    0.3197    0.0000
   4887.188     0.73082    0.388(6)    29674.    0.3197    0.0000
   4892.078     0.73155    0.390(6)    29844.    0.3197    0.0000
   4896.984     0.73229    0.399(6)    29224.    0.3196    0.0000
   4901.875     0.73302    0.414(6)    27873.    0.3196    0.0000
   4906.766     0.73375    0.420(6)    27474.    0.3196    0.0000
   4911.688     0.73449    0.414(6)    28397.    0.3196    0.0000
   4916.609     0.73522    0.409(6)    28426.    0.3195    0.0000
   4921.516     0.73596    0.409(6)    28426.    0.3195    0.0000
   4926.438     0.73669    0.404(6)    28988.    0.3195    0.0000
   4931.375     0.73743    0.404(6)    29189.    0.3195    0.0000
   4936.313     0.73817    0.405(6)    28988.    0.3194    0.0000
   4941.25      0.73891    0.408(6)    28592.    0.3194    0.0000
   4946.188     0.73964    0.392(6)    30226.    0.3194    0.0000
   4951.141     0.74038    0.391(6)    30395.    0.3194    0.0000
   4956.094     0.74112    0.391(6)    30014.    0.3193    0.0000
   4961.047     0.74187    0.385(6)    30826.    0.3193    0.0000
   4966.016     0.74261    0.392(6)    30610.    0.3193    0.0000
   4970.984     0.74335    0.399(6)    29560.    0.3193    0.0000
   4975.953     0.74409    0.420(6)    27989.    0.3192    0.0000
   4980.938     0.74484    0.435(6)    27594.    0.3192    0.0000
   4985.922     0.74558    0.432(6)    27432.    0.3192    0.0000
   4990.906     0.74633    0.431(6)    27594.    0.3192    0.0000
   4995.906     0.74708    0.426(6)    28152.    0.3191    0.0000
   5000.906     0.74782    0.425(6)    28342.    0.3191    0.0000
   5005.906     0.74857    0.431(6)    27594.    0.3191    0.0000
   5010.906     0.74932    0.439(6)    27411.    0.3190    0.0000
   5015.922     0.75007    0.435(6)    27940.    0.3190    0.0000
   5020.938     0.75082    0.436(6)    27411.    0.3190    0.0000
   5025.953     0.75157    0.432(6)    28126.    0.3190    0.0000
   5030.984     0.75232    0.425(6)    28505.    0.3189    0.0000
   5036.016     0.75307    0.423(6)    28697.    0.3189    0.0000
   5041.063     0.75383    0.423(6)    28667.    0.3189    0.0000
   5046.109     0.75458    0.432(6)    28315.    0.3189    0.0000
   5051.156     0.75534    0.419(6)    29251.    0.3188    0.0000
   5056.219     0.75609    0.420(6)    28667.    0.3188    0.0000
   5061.281     0.75685    0.424(6)    29055.    0.3188    0.0000
   5066.344     0.75761    0.428(6)    28288.    0.3187    0.0000
   5071.406     0.75836    0.440(6)    27551.    0.3187    0.0000
   5076.469     0.75912    0.457(6)    27016.    0.3187    0.0000
   5081.547     0.75988    0.449(6)    27351.    0.3187    0.0000
   5086.641     0.76064    0.456(6)    26826.    0.3186    0.0000
   5091.734     0.76140    0.448(6)    27710.    0.3186    0.0000
   5096.828     0.76216    0.441(6)    28076.    0.3186    0.0000
   5101.922     0.76293    0.427(6)    28638.    0.3185    0.0000
   5107.031     0.76369    0.413(6)    30182.    0.3185    0.0000
   5112.141     0.76445    0.418(6)    29415.    0.3185    0.0000
   5117.25      0.76522    0.412(6)    29978.    0.3184    0.0000
   5122.375     0.76598    0.417(6)    29978.    0.3184    0.0000
   5127.5       0.76675    0.428(6)    28990.    0.3184    0.0000
   5132.625     0.76752    0.452(6)    27509.    0.3184    0.0000
   5137.766     0.76828    0.463(6)    27138.    0.3183    0.0000
   5142.906     0.76905    0.478(6)    25974.    0.3183    0.0000
   5148.047     0.76982    0.469(6)    26625.    0.3183    0.0000
   5153.203     0.77059    0.445(6)    28394.    0.3182    0.0000
   5158.359     0.77136    0.440(6)    28394.    0.3182    0.0000
   5163.516     0.77213    0.430(6)    29151.    0.3182    0.0000
   5168.672     0.77290    0.419(6)    29939.    0.3181    0.0000
   5173.844     0.77368    0.405(6)    30922.    0.3181    0.0000
   5179.031     0.77445    0.391(6)    32444.    0.3181    0.0000
   5184.219     0.77523    0.385(6)    32899.    0.3180    0.0000
   5189.406     0.77600    0.394(6)    31561.    0.3180    0.0000
   5194.594     0.77678    0.406(6)    31346.    0.3180    0.0000
   5199.781     0.77756    0.422(6)    29702.    0.3179    0.0000
   5204.984     0.77833    0.431(6)    29277.    0.3179    0.0000
   5210.203     0.77911    0.434(6)    29277.    0.3179    0.0000
   5215.422     0.77989    0.432(6)    29277.    0.3178    0.0000
   5220.641     0.78067    0.423(6)    29862.    0.3178    0.0000
   5225.859     0.78145    0.416(6)    30464.    0.3178    0.0000
   5231.078     0.78223    0.412(6)    30464.    0.3177    0.0000
   5236.313     0.78302    0.412(6)    31037.    0.3177    0.0000
   5241.563     0.78380    0.411(6)    30830.    0.3177    0.0000
   5246.797     0.78458    0.433(6)    28897.    0.3176    0.0000
   5252.031     0.78537    0.446(6)    28681.    0.3176    0.0000
   5257.297     0.78615    0.465(6)    27238.    0.3176    0.0000
   5262.563     0.78694    0.497(6)    25776.    0.3175    0.0000
   5267.828     0.78773    0.512(6)    25002.    0.3175    0.0000
   5273.094     0.78852    0.519(6)    24414.    0.3175    0.0000
   5278.359     0.78930    0.503(6)    25768.    0.3174    0.0000
   5283.641     0.79009    0.484(6)    26406.    0.3174    0.0000
   5288.938     0.79088    0.465(6)    27909.    0.3174    0.0000
   5294.234     0.79168    0.458(6)    28109.    0.3173    0.0000
   5299.531     0.79247    0.449(6)    28625.    0.3173    0.0000
   5304.828     0.79326    0.450(6)    29024.    0.3173    0.0000
   5310.125     0.79405    0.429(6)    30141.    0.3172    0.0000
   5315.438     0.79485    0.423(6)    30741.    0.3172    0.0000
   5320.766     0.79564    0.411(6)    31941.    0.3171    0.0000
   5326.094     0.79644    0.409(6)    31569.    0.3171    0.0000
   5331.422     0.79724    0.412(6)    31941.    0.3171    0.0000
   5336.766     0.79803    0.424(6)    30496.    0.3170    0.0000
   5342.094     0.79883    0.432(6)    30141.    0.3170    0.0000
   5347.438     0.79963    0.429(6)    30654.    0.3170    0.0000
   5352.797     0.80043    0.440(6)    29907.    0.3169    0.0000
   5358.141     0.80123    0.457(6)    28779.    0.3169    0.0000
   5363.5       0.80203    0.447(6)    29302.    0.3168    0.0000
   5368.875     0.80283    0.452(6)    29490.    0.3168    0.0000
   5374.25      0.80364    0.439(6)    29870.    0.3168    0.0000
   5379.625     0.80444    0.433(6)    30654.    0.3167    0.0000
   5385.0       0.80525    0.435(6)    30455.    0.3167    0.0000
   5390.391     0.80605    0.433(6)    30611.    0.3167    0.0000
   5395.781     0.80686    0.437(6)    30455.    0.3166    0.0000
   5401.172     0.80766    0.448(6)    29456.    0.3166    0.0000
   5406.578     0.80847    0.455(6)    29456.    0.3165    0.0000
   5411.984     0.80928    0.457(6)    29085.    0.3165    0.0000
   5417.406     0.81009    0.462(6)    29055.    0.3165    0.0000
   5422.828     0.81090    0.447(6)    29644.    0.3164    0.0000
   5428.25      0.81171    0.451(6)    29609.    0.3164    0.0000
   5433.688     0.81252    0.452(6)    29797.    0.3163    0.0000
   5439.125     0.81334    0.455(6)    29238.    0.3163    0.0000
   5444.563     0.81415    0.455(6)    29609.    0.3163    0.0000
   5450.016     0.81497    0.449(6)    29950.    0.3162    0.0000
   5455.469     0.81578    0.450(6)    29987.    0.3162    0.0000
   5460.922     0.81660    0.461(6)    29206.    0.3161    0.0000
   5466.391     0.81741    0.461(6)    29575.    0.3161    0.0000
   5471.859     0.81823    0.461(6)    29206.    0.3161    0.0000
   5477.328     0.81905    0.466(6)    29025.    0.3160    0.0000
   5482.813     0.81987    0.480(6)    28290.    0.3160    0.0000
   5488.297     0.82069    0.504(6)    26649.    0.3159    0.0000
   5493.781     0.82151    0.530(6)    25863.    0.3159    0.0000
   5499.281     0.82233    0.545(6)    24836.    0.3158    0.0000
   5504.781     0.82315    0.553(6)    24836.    0.3158    0.0000
   5510.281     0.82397    0.531(6)    25563.    0.3158    0.0000
   5515.797     0.82480    0.522(6)    26466.    0.3157    0.0000
   5521.328     0.82563    0.501(6)    27262.    0.3157    0.0000
   5526.859     0.82645    0.505(6)    27425.    0.3156    0.0000
   5532.391     0.82728    0.520(6)    26311.    0.3156    0.0000
   5537.922     0.82811    0.541(6)    25556.    0.3155    0.0000
   5543.453     0.82893    0.550(6)    24833.    0.3155    0.0000
   5549.0       0.82976    0.555(6)    24972.    0.3154    0.0000
   5554.547     0.83059    0.564(6)    24414.    0.3154    0.0000
   5560.094     0.83142    0.547(6)    25403.    0.3154    0.0000
   5565.672     0.83226    0.536(6)    25986.    0.3153    0.0000
   5571.25      0.83309    0.529(6)    26147.    0.3153    0.0000
   5576.813     0.83392    0.532(6)    26147.    0.3152    0.0000
   5582.391     0.83476    0.523(6)    26596.    0.3152    0.0000
   5587.984     0.83559    0.523(6)    26752.    0.3151    0.0000
   5593.578     0.83643    0.513(6)    27227.    0.3151    0.0000
   5599.172     0.83726    0.492(6)    28388.    0.3150    0.0000
   5604.766     0.83810    0.472(6)    29624.    0.3150    0.0000
   5610.375     0.83894    0.460(6)    30707.    0.3150    0.0000
   5615.984     0.83978    0.438(6)    31939.    0.3149    0.0000
   5621.594     0.84062    0.429(6)    32925.    0.3149    0.0000
   5627.219     0.84146    0.429(6)    32925.    0.3148    0.0000
   5632.859     0.84230    0.415(5)    34392.    0.3148    0.0000
   5638.5       0.84314    0.420(5)    33571.    0.3147    0.0000
   5644.141     0.84399    0.430(5)    33078.    0.3147    0.0000
   5649.797     0.84483    0.442(6)    32039.    0.3146    0.0000
   5655.453     0.84568    0.455(6)    31243.    0.3146    0.0000
   5661.109     0.84652    0.466(6)    30477.    0.3145    0.0000
   5666.766     0.84737    0.473(6)    30104.    0.3145    0.0000
   5672.438     0.84822    0.468(6)    30625.    0.3144    0.0000
   5678.109     0.84907    0.465(6)    30666.    0.3144    0.0000
   5683.781     0.84991    0.459(6)    31393.    0.3143    0.0000
   5689.469     0.85076    0.451(6)    31788.    0.3143    0.0000
   5695.156     0.85161    0.448(6)    32190.    0.3142    0.0000
   5700.859     0.85247    0.443(6)    32545.    0.3142    0.0000
   5706.563     0.85332    0.451(6)    31988.    0.3141    0.0000
   5712.266     0.85417    0.453(6)    31739.    0.3141    0.0000
   5717.984     0.85503    0.452(6)    32138.    0.3140    0.0000
   5723.703     0.85588    0.443(6)    32341.    0.3140    0.0000
   5729.438     0.85674    0.446(6)    32695.    0.3139    0.0000
   5735.172     0.85760    0.433(5)    33382.    0.3139    0.0000
   5740.906     0.85845    0.423(5)    34627.    0.3138    0.0000
   5746.656     0.85931    0.423(5)    34183.    0.3138    0.0000
   5752.406     0.86017    0.437(5)    33533.    0.3137    0.0000
   5758.156     0.86103    0.449(6)    32490.    0.3137    0.0000
   5763.922     0.86189    0.471(6)    31067.    0.3136    0.0000
   5769.688     0.86276    0.475(6)    30732.    0.3136    0.0000
   5775.453     0.86362    0.464(6)    31643.    0.3135    0.0000
   5781.234     0.86448    0.456(6)    32235.    0.3135    0.0000
   5787.016     0.86535    0.426(5)    34116.    0.3134    0.0000
   5792.813     0.86621    0.423(5)    35156.    0.3134    0.0000
   5798.609     0.86708    0.425(5)    34335.    0.3133    0.0000
   5804.406     0.86795    0.421(5)    35384.    0.3133    0.0000
   5810.219     0.86882    0.409(5)    36081.    0.3132    0.0000
   5816.031     0.86968    0.420(5)    35156.    0.3132    0.0000
   5821.844     0.87055    0.426(5)    34707.    0.3131    0.0000
   5827.672     0.87142    0.422(5)    35081.    0.3131    0.0000
   5833.5       0.87230    0.442(5)    33621.    0.3130    0.0000
   5839.328     0.87317    0.448(6)    32936.    0.3130    0.0000
   5845.172     0.87404    0.454(6)    32936.    0.3129    0.0000
   5851.031     0.87492    0.462(6)    32279.    0.3129    0.0000
   5856.891     0.87579    0.476(6)    31169.    0.3128    0.0000
   5862.75      0.87667    0.497(6)    30034.    0.3127    0.0000
   5868.609     0.87754    0.526(6)    28198.    0.3127    0.0000
   5874.469     0.87842    0.550(6)    27388.    0.3126    0.0000
   5880.359     0.87930    0.564(6)    26473.    0.3126    0.0000
   5886.25      0.88018    0.577(6)    26050.    0.3125    0.0000
   5892.125     0.88106    0.579(6)    25908.    0.3125    0.0000
   5898.016     0.88194    0.559(6)    26917.    0.3124    0.0000
   5903.922     0.88282    0.538(6)    27995.    0.3124    0.0000
   5909.828     0.88371    0.518(6)    28971.    0.3123    0.0000
   5915.75      0.88459    0.496(6)    30677.    0.3123    0.0000
   5921.672     0.88548    0.484(6)    31084.    0.3122    0.0000
   5927.594     0.88636    0.466(6)    32373.    0.3121    0.0000
   5933.531     0.88725    0.457(5)    33172.    0.3121    0.0000
   5939.469     0.88814    0.448(5)    33791.    0.3120    0.0000
   5945.406     0.88903    0.444(5)    34213.    0.3120    0.0000
   5951.344     0.88991    0.447(5)    33583.    0.3119    0.0000
   5957.297     0.89080    0.450(5)    33729.    0.3119    0.0000
   5963.266     0.89170    0.444(5)    34360.    0.3118    0.0000
   5969.234     0.89259    0.441(5)    34148.    0.3117    0.0000
   5975.203     0.89348    0.429(5)    35677.    0.3117    0.0000
   5981.172     0.89437    0.428(5)    35453.    0.3116    0.0000
   5987.156     0.89527    0.421(5)    36281.    0.3116    0.0000
   5993.156     0.89616    0.428(5)    35825.    0.3115    0.0000
   5999.156     0.89706    0.430(5)    35377.    0.3115    0.0000
   6005.156     0.89796    0.433(5)    35377.    0.3114    0.0000
   6011.156     0.89886    0.433(5)    35377.    0.3113    0.0000
   6017.172     0.89976    0.433(5)    35302.    0.3113    0.0000
   6023.203     0.90066    0.442(5)    34867.    0.3112    0.0000
   6029.219     0.90156    0.458(5)    33462.    0.3112    0.0000
   6035.25      0.90246    0.466(6)    32947.    0.3111    0.0000
   6041.297     0.90336    0.471(6)    32608.    0.3110    0.0000
   6047.328     0.90426    0.460(5)    33202.    0.3110    0.0000
   6053.375     0.90517    0.464(5)    33345.    0.3109    0.0000
   6059.438     0.90607    0.468(6)    32947.    0.3109    0.0000
   6065.5       0.90698    0.487(6)    31608.    0.3108    0.0000
   6071.563     0.90789    0.503(6)    30879.    0.3108    0.0000
   6077.641     0.90880    0.507(6)    30487.    0.3107    0.0000
   6083.734     0.90971    0.527(6)    29300.    0.3106    0.0000
   6089.813     0.91061    0.529(6)    29329.    0.3106    0.0000
   6095.906     0.91153    0.518(6)    29768.    0.3105    0.0000
   6102.016     0.91244    0.526(6)    29300.    0.3105    0.0000
   6108.109     0.91335    0.530(6)    29300.    0.3104    0.0000
   6114.219     0.91426    0.520(6)    29601.    0.3103    0.0000
   6120.344     0.91518    0.532(6)    28947.    0.3103    0.0000
   6126.469     0.91609    0.525(6)    29601.    0.3102    0.0000
   6132.594     0.91701    0.534(6)    28787.    0.3101    0.0000
   6138.734     0.91793    0.550(6)    28292.    0.3101    0.0000
   6144.875     0.91885    0.545(6)    28471.    0.3100    0.0000
   6151.016     0.91976    0.535(6)    28921.    0.3100    0.0000
   6157.172     0.92069    0.510(6)    30415.    0.3099    0.0000
   6163.328     0.92161    0.504(6)    30938.    0.3098    0.0000
   6169.5       0.92253    0.484(6)    31980.    0.3098    0.0000
   6175.672     0.92345    0.471(6)    32979.    0.3097    0.0000
   6181.844     0.92437    0.462(5)    33711.    0.3097    0.0000
   6188.031     0.92530    0.455(5)    33912.    0.3096    0.0000
   6194.219     0.92622    0.451(5)    34319.    0.3095    0.0000
   6200.422     0.92715    0.421(5)    37068.    0.3095    0.0000
   6206.625     0.92808    0.420(5)    36925.    0.3094    0.0000
   6212.828     0.92901    0.418(5)    37068.    0.3093    0.0000
   6219.047     0.92994    0.413(5)    38004.    0.3093    0.0000
   6225.266     0.93087    0.428(5)    36389.    0.3092    0.0000
   6231.5       0.93180    0.445(5)    35016.    0.3092    0.0000
   6237.734     0.93273    0.467(5)    33454.    0.3091    0.0000
   6243.969     0.93366    0.469(5)    33397.    0.3090    0.0000
   6250.219     0.93460    0.464(5)    33791.    0.3090    0.0000
   6256.469     0.93553    0.468(5)    33397.    0.3089    0.0000
   6262.734     0.93647    0.482(6)    32767.    0.3088    0.0000
   6269.0       0.93740    0.498(6)    31526.    0.3088    0.0000
   6275.266     0.93834    0.509(6)    30784.    0.3087    0.0000
   6281.547     0.93928    0.522(6)    30275.    0.3086    0.0000
   6287.828     0.94022    0.512(6)    30613.    0.3086    0.0000
   6294.125     0.94116    0.502(6)    31266.    0.3085    0.0000
   6300.438     0.94210    0.505(6)    31266.    0.3084    0.0000
   6306.734     0.94304    0.507(6)    30957.    0.3084    0.0000
   6313.031     0.94399    0.497(6)    31619.    0.3083    0.0000
   6319.359     0.94493    0.495(6)    31933.    0.3083    0.0000
   6325.688     0.94588    0.498(6)    31798.    0.3082    0.0000
   6332.016     0.94682    0.494(6)    31933.    0.3081    0.0000
   6338.344     0.94777    0.487(6)    32160.    0.3081    0.0000
   6344.672     0.94872    0.466(5)    34008.    0.3080    0.0000
   6351.031     0.94967    0.456(5)    34950.    0.3079    0.0000
   6357.391     0.95062    0.445(5)    35435.    0.3079    0.0000
   6363.75      0.95157    0.435(5)    36431.    0.3078    0.0000
   6370.125     0.95252    0.430(5)    37094.    0.3077    0.0000
   6376.5       0.95347    0.422(5)    37546.    0.3077    0.0000
   6382.875     0.95443    0.412(5)    38476.    0.3076    0.0000
   6389.25      0.95538    0.408(5)    38954.    0.3075    0.0000
   6395.641     0.95634    0.407(5)    39337.    0.3075    0.0000
   6402.047     0.95729    0.422(5)    37686.    0.3074    0.0000
   6408.453     0.95825    0.445(5)    35923.    0.3073    0.0000
   6414.859     0.95921    0.483(6)    32935.    0.3073    0.0000
   6421.281     0.96017    0.514(6)    31277.    0.3072    0.0000
   6427.703     0.96113    0.539(6)    29657.    0.3071    0.0000
   6434.125     0.96209    0.521(6)    30768.    0.3071    0.0000
   6440.563     0.96305    0.506(6)    31624.    0.3070    0.0000
   6447.016     0.96402    0.485(5)    33204.    0.3069    0.0000
   6453.469     0.96498    0.469(5)    34220.    0.3069    0.0000
   6459.922     0.96595    0.450(5)    35776.    0.3068    0.0000
   6466.391     0.96691    0.452(5)    35567.    0.3067    0.0000
   6472.859     0.96788    0.449(5)    35776.    0.3067    0.0000
   6479.328     0.96885    0.489(6)    32833.    0.3066    0.0000
   6485.813     0.96982    0.518(6)    31198.    0.3065    0.0000
   6492.313     0.97079    0.535(6)    30044.    0.3065    0.0000
   6498.813     0.97176    0.539(6)    30044.    0.3064    0.0000
   6505.313     0.97273    0.554(6)    29106.    0.3063    0.0000
   6511.813     0.97370    0.582(6)    27636.    0.3063    0.0000
   6518.328     0.97468    0.573(6)    28046.    0.3062    0.0000
   6524.859     0.97565    0.548(6)    29386.    0.3061    0.0000
   6531.391     0.97663    0.518(6)    30992.    0.3061    0.0000
   6537.922     0.97761    0.476(5)    33848.    0.3060    0.0000
   6544.453     0.97858    0.448(5)    35839.    0.3059    0.0000
   6551.0       0.97956    0.428(5)    37697.    0.3059    0.0000
   6557.563     0.98054    0.416(5)    38605.    0.3058    0.0000
   6564.125     0.98153    0.422(5)    38147.    0.3057    0.0000
   6570.688     0.98251    0.424(5)    38147.    0.3056    0.0000
   6577.25      0.98349    0.441(5)    36606.    0.3056    0.0000
   6583.828     0.98447    0.463(5)    35090.    0.3055    0.0000
   6590.422     0.98546    0.490(6)    32995.    0.3054    0.0000
   6597.016     0.98644    0.520(6)    30917.    0.3054    0.0000
   6603.609     0.98743    0.518(6)    31083.    0.3053    0.0000
   6610.219     0.98842    0.522(6)    30881.    0.3052    0.0000
   6616.844     0.98941    0.507(6)    31888.    0.3052    0.0000
   6623.469     0.99040    0.496(6)    32410.    0.3051    0.0000
   6630.094     0.99139    0.470(5)    34438.    0.3050    0.0000
   6636.719     0.99238    0.450(5)    35829.    0.3050    0.0000
   6643.359     0.99337    0.434(5)    37224.    0.3049    0.0000
   6650.016     0.99437    0.414(5)    39012.    0.3048    0.0000
   6656.672     0.99536    0.408(5)    39245.    0.3048    0.0000
   6663.328     0.99636    0.397(5)    40439.    0.3047    0.0000
   6669.984     0.99735    0.386(5)    41689.    0.3046    0.0000
   6676.656     0.99835    0.377(5)    42867.    0.3045    0.0000
   6683.344     0.99935    0.368(5)    43949.    0.3045    0.0000
   6690.031     1.00035    0.369(5)    43674.    0.3044    0.0000
   6696.719     1.00135    0.365(5)    44226.    0.3043    0.0000
   6703.422     1.00235    0.364(5)    44640.    0.3043    0.0000
   6710.125     1.00335    0.381(5)    42341.    0.3042    0.0000
   6716.828     1.00435    0.385(5)    41959.    0.3041    0.0000
   6723.547     1.00536    0.395(5)    40954.    0.3041    0.0000
   6730.281     1.00637    0.404(5)    39882.    0.3040    0.0000
   6737.016     1.00737    0.409(5)    39281.    0.3039    0.0000
   6743.75      1.00838    0.402(5)    40119.    0.3039    0.0000
   6750.5       1.00939    0.397(5)    40843.    0.3038    0.0000
   6757.25      1.01040    0.392(5)    41088.    0.3037    0.0000
   6764.016     1.01141    0.390(5)    41470.    0.3037    0.0000
   6770.797     1.01242    0.391(5)    41470.    0.3036    0.0000
   6777.563     1.01343    0.407(5)    39647.    0.3035    0.0000
   6784.344     1.01445    0.414(5)    39219.    0.3034    0.0000
   6791.141     1.01546    0.434(5)    37114.    0.3034    0.0000
   6797.922     1.01648    0.440(5)    36696.    0.3033    0.0000
   6804.719     1.01749    0.449(5)    36010.    0.3032    0.0000
   6811.531     1.01851    0.464(5)    34836.    0.3032    0.0000
   6818.344     1.01953    0.491(6)    32827.    0.3031    0.0000
   6825.172     1.02055    0.515(6)    31435.    0.3030    0.0000
   6832.0       1.02157    0.538(6)    29897.    0.3030    0.0000
   6838.828     1.02259    0.553(6)    29127.    0.3029    0.0000
   6845.672     1.02362    0.538(6)    29867.    0.3028    0.0000
   6852.531     1.02464    0.512(6)    31559.    0.3027    0.0000
   6859.391     1.02567    0.495(6)    32436.    0.3027    0.0000
   6866.25      1.02669    0.460(5)    35092.    0.3026    0.0000
   6873.125     1.02772    0.436(5)    36879.    0.3025    0.0000
   6880.0       1.02875    0.420(5)    38365.    0.3025    0.0000
   6886.875     1.02978    0.403(5)    39942.    0.3024    0.0000
   6893.766     1.03081    0.393(5)    41260.    0.3023    0.0000
   6900.672     1.03184    0.379(5)    42755.    0.3023    0.0000
   6907.578     1.03287    0.383(5)    42248.    0.3022    0.0000
   6914.484     1.03390    0.391(5)    41504.    0.3021    0.0000
   6921.391     1.03494    0.415(5)    38936.    0.3021    0.0000
   6928.313     1.03597    0.428(5)    37553.    0.3020    0.0000
   6935.25      1.03701    0.451(5)    35733.    0.3019    0.0000
   6942.188     1.03805    0.477(5)    33863.    0.3018    0.0000
   6949.141     1.03909    0.492(6)    32934.    0.3018    0.0000
   6956.094     1.04013    0.517(6)    31162.    0.3017    0.0000
   6963.047     1.04117    0.529(6)    30658.    0.3016    0.0000
   6970.016     1.04221    0.548(6)    29607.    0.3016    0.0000
   6976.984     1.04325    0.573(6)    28198.    0.3015    0.0000
   6983.969     1.04429    0.573(6)    28315.    0.3014    0.0000
   6990.969     1.04534    0.597(6)    27128.    0.3014    0.0000
   6997.953     1.04638    0.601(6)    26886.    0.3013    0.0000
   7004.953     1.04743    0.596(6)    27242.    0.3012    0.0000
   7011.969     1.04848    0.579(6)    27911.    0.3012    0.0000
   7018.984     1.04953    0.542(6)    29993.    0.3011    0.0000
   7026.0       1.05058    0.529(6)    30472.    0.3010    0.0000
   7033.016     1.05163    0.514(6)    31526.    0.3010    0.0000
   7040.063     1.05268    0.490(5)    33132.    0.3009    0.0000
   7047.109     1.05373    0.472(5)    34237.    0.3008    0.0000
   7054.156     1.05479    0.448(5)    36044.    0.3008    0.0000
   7061.219     1.05584    0.426(5)    38063.    0.3007    0.0000
   7068.281     1.05690    0.417(5)    38918.    0.3006    0.0000
   7075.359     1.05796    0.400(5)    40613.    0.3005    0.0000
   7082.438     1.05901    0.390(5)    41425.    0.3005    0.0000
   7089.516     1.06007    0.386(5)    42034.    0.3004    0.0000
   7096.609     1.06113    0.388(5)    41792.    0.3003    0.0000
   7103.703     1.06219    0.387(5)    41792.    0.3003    0.0000
   7110.813     1.06326    0.383(5)    42405.    0.3002    0.0000
   7117.938     1.06432    0.398(5)    40972.    0.3001    0.0000
   7125.063     1.06539    0.432(5)    37486.    0.3001    0.0000
   7132.188     1.06645    0.468(5)    34789.    0.3000    0.0000
   7139.313     1.06752    0.515(6)    31570.    0.2999    0.0000
   7146.453     1.06859    0.560(6)    29032.    0.2999    0.0000
   7153.609     1.06965    0.593(6)    27315.    0.2998    0.0000
   7160.766     1.07072    0.632(6)    25630.    0.2997    0.0000
   7167.938     1.07180    0.622(6)    25971.    0.2997    0.0000
   7175.109     1.07287    0.584(6)    27441.    0.2996    0.0000
   7182.281     1.07394    0.545(6)    29709.    0.2995    0.0000
   7189.469     1.07502    0.500(6)    32127.    0.2995    0.0000
   7196.656     1.07609    0.474(5)    33965.    0.2994    0.0000
   7203.859     1.07717    0.455(5)    35524.    0.2993    0.0000
   7211.078     1.07825    0.430(5)    37656.    0.2993    0.0000
   7218.297     1.07933    0.424(5)    38271.    0.2992    0.0000
   7225.516     1.08041    0.427(5)    37860.    0.2991    0.0000
   7232.734     1.08148    0.443(5)    36470.    0.2991    0.0000
   7239.969     1.08257    0.464(5)    35096.    0.2990    0.0000
   7247.219     1.08365    0.476(5)    34032.    0.2989    0.0000
   7254.469     1.08473    0.492(6)    32852.    0.2989    0.0000
   7261.719     1.08582    0.490(6)    33016.    0.2988    0.0000
   7268.984     1.08690    0.489(6)    32970.    0.2987    0.0000
   7276.266     1.08799    0.494(6)    32806.    0.2987    0.0000
   7283.547     1.08908    0.498(6)    32482.    0.2986    0.0000
   7290.828     1.09017    0.504(6)    32005.    0.2985    0.0000
   7298.125     1.09126    0.500(6)    32440.    0.2985    0.0000
   7305.438     1.09235    0.510(6)    31810.    0.2984    0.0000
   7312.75      1.09345    0.533(6)    30313.    0.2983    0.0000
   7320.063     1.09454    0.539(6)    30027.    0.2983    0.0000
   7327.375     1.09563    0.532(6)    30313.    0.2982    0.0000
   7334.703     1.09673    0.513(6)    31466.    0.2982    0.0000
   7342.047     1.09783    0.498(6)    32398.    0.2981    0.0000
   7349.391     1.09893    0.483(5)    33372.    0.2980    0.0000
   7356.75      1.10003    0.464(5)    34860.    0.2980    0.0000
   7364.109     1.10113    0.460(5)    34918.    0.2979    0.0000
   7371.469     1.10223    0.443(5)    36505.    0.2978    0.0000
   7378.844     1.10333    0.433(5)    37273.    0.2978    0.0000
   7386.234     1.10443    0.431(5)    37787.    0.2977    0.0000
   7393.625     1.10554    0.448(5)    36129.    0.2976    0.0000
   7401.016     1.10664    0.472(5)    34455.    0.2976    0.0000
   7408.422     1.10775    0.491(6)    32952.    0.2975    0.0000
   7415.828     1.10886    0.500(6)    32315.    0.2975    0.0000
   7423.25      1.10997    0.508(6)    31811.    0.2974    0.0000
   7430.688     1.11108    0.527(6)    30625.    0.2973    0.0000
   7438.125     1.11219    0.541(6)    29778.    0.2973    0.0000
   7445.563     1.11330    0.556(6)    28966.    0.2972    0.0000
   7453.0       1.11442    0.544(6)    29504.    0.2971    0.0000
   7460.453     1.11553    0.514(6)    31324.    0.2971    0.0000
   7467.922     1.11665    0.504(6)    31926.    0.2970    0.0000
   7475.391     1.11776    0.472(5)    34177.    0.2970    0.0000
   7482.875     1.11888    0.445(5)    36235.    0.2969    0.0000
   7490.375     1.12000    0.426(5)    37753.    0.2968    0.0000
   7497.859     1.12112    0.416(5)    38428.    0.2968    0.0000
   7505.359     1.12224    0.404(5)    39907.    0.2967    0.0000
   7512.875     1.12337    0.392(5)    41088.    0.2967    0.0000
   7520.391     1.12449    0.392(5)    41208.    0.2966    0.0000
   7527.922     1.12562    0.392(5)    40987.    0.2965    0.0000
   7535.453     1.12674    0.387(5)    41656.    0.2965    0.0000
   7542.984     1.12787    0.381(5)    42112.    0.2964    0.0000
   7550.531     1.12900    0.368(5)    43885.    0.2964    0.0000
   7558.094     1.13013    0.357(5)    45126.    0.2963    0.0000
   7565.656     1.13126    0.350(5)    45897.    0.2962    0.0000
   7573.219     1.13239    0.347(5)    46421.    0.2962    0.0000
   7580.797     1.13352    0.349(5)    46277.    0.2961    0.0000
   7588.375     1.13465    0.368(5)    43643.    0.2961    0.0000
   7595.969     1.13579    0.369(5)    43881.    0.2960    0.0000
   7603.578     1.13693    0.395(5)    40788.    0.2959    0.0000
   7611.172     1.13806    0.422(5)    38304.    0.2959    0.0000
   7618.781     1.13920    0.485(5)    33435.    0.2958    0.0000
   7626.406     1.14034    0.589(6)    27477.    0.2958    0.0000
   7634.047     1.14148    0.692(7)    23447.    0.2957    0.0000
   7641.688     1.14262    0.749(7)    21419.    0.2956    0.0000
   7649.328     1.14377    0.737(7)    21762.    0.2956    0.0000
   7656.984     1.14491    0.679(7)    23541.    0.2955    0.0000
   7664.641     1.14606    0.615(6)    26090.    0.2955    0.0000
   7672.313     1.14720    0.561(6)    28672.    0.2954    0.0000
   7679.984     1.14835    0.554(6)    28947.    0.2954    0.0000
   7687.656     1.14950    0.567(6)    28421.    0.2953    0.0000
   7695.359     1.15065    0.605(6)    26743.    0.2953    0.0000
   7703.063     1.15180    0.642(6)    25021.    0.2952    0.0000
   7710.766     1.15295    0.654(6)    24613.    0.2951    0.0000
   7718.484     1.15411    0.626(6)    25645.    0.2951    0.0000
   7726.203     1.15526    0.584(6)    27436.    0.2950    0.0000
   7733.938     1.15642    0.551(6)    29140.    0.2950    0.0000
   7741.672     1.15757    0.507(6)    31486.    0.2949    0.0000
   7749.406     1.15873    0.469(5)    34212.    0.2949    0.0000
   7757.172     1.15989    0.438(5)    36732.    0.2948    0.0000
   7764.938     1.16105    0.415(5)    38495.    0.2948    0.0000
   7772.703     1.16221    0.399(5)    40219.    0.2947    0.0000
   7780.484     1.16338    0.387(5)    41493.    0.2947    0.0000
   7788.266     1.16454    0.376(5)    42601.    0.2946    0.0000
   7796.047     1.16570    0.363(5)    43990.    0.2945    0.0000
   7803.844     1.16687    0.353(5)    45564.    0.2945    0.0000
   7811.656     1.16804    0.365(5)    44106.    0.2944    0.0000
   7819.469     1.16920    0.382(5)    42047.    0.2944    0.0000
   7827.297     1.17037    0.410(5)    39036.    0.2943    0.0000
   7835.141     1.17155    0.418(5)    38261.    0.2943    0.0000
   7842.984     1.17272    0.420(5)    38071.    0.2942    0.0000
   7850.828     1.17389    0.417(5)    38453.    0.2942    0.0000
   7858.672     1.17507    0.416(5)    38453.    0.2941    0.0000
   7866.531     1.17624    0.413(5)    38567.    0.2941    0.0000
   7874.406     1.17742    0.406(5)    39150.    0.2940    0.0000
   7882.281     1.17859    0.395(5)    40358.    0.2940    0.0000
   7890.172     1.17977    0.392(5)    40679.    0.2939    0.0000
   7898.063     1.18095    0.384(5)    41622.    0.2939    0.0000
   7905.953     1.18213    0.384(5)    41522.    0.2938    0.0000
   7913.875     1.18332    0.392(5)    40793.    0.2938    0.0000
   7921.797     1.18450    0.403(5)    39264.    0.2937    0.0000
   7929.719     1.18569    0.422(5)    37848.    0.2937    0.0000
   7937.656     1.18687    0.472(5)    33760.    0.2936    0.0000
   7945.594     1.18806    0.530(6)    30036.    0.2936    0.0000
   7953.547     1.18925    0.589(6)    27220.    0.2935    0.0000
   7961.5       1.19044    0.622(6)    25507.    0.2935    0.0000
   7969.453     1.19163    0.624(6)    25400.    0.2934    0.0000
   7977.438     1.19282    0.599(6)    26439.    0.2934    0.0000
   7985.422     1.19402    0.576(6)    27220.    0.2934    0.0000
   7993.406     1.19521    0.542(6)    28972.    0.2933    0.0000
   8001.406     1.19640    0.505(6)    31050.    0.2933    0.0000
   8009.406     1.19760    0.483(6)    32465.    0.2932    0.0000
   8017.422     1.19880    0.449(5)    35047.    0.2932    0.0000
   8025.453     1.20000    0.431(5)    36392.    0.2931    0.0000
   8033.484     1.20120    0.420(5)    37452.    0.2931    0.0000
   8041.516     1.20240    0.428(5)    36740.    0.2930    0.0000
   8049.563     1.20360    0.420(5)    37926.    0.2930    0.0000
   8057.625     1.20481    0.402(5)    39242.    0.2929    0.0000
   8065.688     1.20602    0.398(5)    39436.    0.2929    0.0000
   8073.75      1.20722    0.399(5)    39242.    0.2929    0.0000
   8081.828     1.20843    0.399(5)    39353.    0.2928    0.0000
   8089.922     1.20964    0.399(5)    39161.    0.2928    0.0000
   8098.016     1.21085    0.398(5)    39353.    0.2927    0.0000
   8106.109     1.21206    0.388(5)    40336.    0.2927    0.0000
   8114.219     1.21327    0.383(5)    41054.    0.2926    0.0000
   8122.344     1.21449    0.392(5)    39853.    0.2926    0.0000
   8130.469     1.21570    0.396(5)    39658.    0.2926    0.0000
   8138.594     1.21692    0.401(5)    39081.    0.2925    0.0000
   8146.734     1.21813    0.401(5)    38813.    0.2925    0.0000
   8154.891     1.21935    0.404(5)    38813.    0.2924    0.0000
   8163.047     1.22057    0.410(5)    37892.    0.2924    0.0000
   8171.219     1.22179    0.402(5)    38736.    0.2924    0.0000
   8179.391     1.22301    0.398(5)    39001.    0.2923    0.0000
   8187.563     1.22424    0.375(5)    41481.    0.2923    0.0000
   8195.766     1.22546    0.361(5)    43075.    0.2922    0.0000
   8203.969     1.22669    0.354(5)    43848.    0.2922    0.0000
   8212.172     1.22792    0.349(5)    44410.    0.2922    0.0000
   8220.391     1.22914    0.351(5)    44410.    0.2921    0.0000
   8228.609     1.23037    0.360(5)    43293.    0.2921    0.0000
   8236.844     1.23160    0.363(5)    42753.    0.2920    0.0000
   8245.094     1.23284    0.372(5)    41701.    0.2920    0.0000
   8253.344     1.23407    0.388(5)    39711.    0.2920    0.0000
   8261.594     1.23530    0.389(5)    39711.    0.2919    0.0000
   8269.859     1.23654    0.383(5)    40401.    0.2919    0.0000
   8278.141     1.23778    0.374(5)    41400.    0.2919    0.0000
   8286.422     1.23902    0.367(5)    42017.    0.2918    0.0000
   8294.703     1.24025    0.382(5)    40401.    0.2918    0.0000
   8303.0       1.24150    0.394(5)    39358.    0.2918    0.0000
   8311.313     1.24274    0.422(5)    36685.    0.2917    0.0000
   8319.625     1.24398    0.452(5)    33971.    0.2917    0.0000
   8327.953     1.24523    0.485(6)    31786.    0.2917    0.0000
   8336.281     1.24647    0.534(6)    28779.    0.2916    0.0000
   8344.609     1.24772    0.543(6)    28298.    0.2916    0.0000
   8352.969     1.24897    0.551(6)    27723.    0.2916    0.0000
   8361.328     1.25022    0.539(6)    28184.    0.2915    0.0000
   8369.688     1.25147    0.508(6)    29942.    0.2915    0.0000
   8378.063     1.25272    0.481(6)    31752.    0.2915    0.0000
   8386.453     1.25397    0.464(6)    32822.    0.2914    0.0000
   8394.844     1.25523    0.449(5)    33880.    0.2914    0.0000
   8403.234     1.25648    0.448(5)    33984.    0.2914    0.0000
   8411.641     1.25774    0.461(6)    32964.    0.2913    0.0000
   8420.063     1.25900    0.486(6)    31421.    0.2913    0.0000
   8428.5       1.26026    0.506(6)    30017.    0.2913    0.0000
   8436.922     1.26152    0.514(6)    29312.    0.2912    0.0000
   8445.359     1.26278    0.504(6)    29993.    0.2912    0.0000
   8453.813     1.26404    0.489(6)    30643.    0.2912    0.0000
   8462.266     1.26531    0.472(6)    31921.    0.2912    0.0000
   8470.734     1.26657    0.465(6)    32329.    0.2911    0.0000
   8479.203     1.26784    0.448(5)    33601.    0.2911    0.0000
   8487.688     1.26911    0.461(6)    32707.    0.2911    0.0000
   8496.188     1.27038    0.477(6)    31621.    0.2910    0.0000
   8504.688     1.27165    0.483(6)    31099.    0.2910    0.0000
   8513.203     1.27292    0.498(6)    30190.    0.2910    0.0000
   8521.719     1.27420    0.505(6)    29606.    0.2910    0.0000
   8530.234     1.27547    0.501(6)    29824.    0.2909    0.0000
   8538.766     1.27674    0.511(6)    29113.    0.2909    0.0000
   8547.313     1.27802    0.502(6)    29682.    0.2909    0.0000
   8555.875     1.27930    0.477(6)    31169.    0.2909    0.0000
   8564.438     1.28058    0.454(6)    32495.    0.2908    0.0000
   8573.0       1.28186    0.426(5)    34649.    0.2908    0.0000
   8581.578     1.28314    0.402(5)    36797.    0.2908    0.0000
   8590.172     1.28443    0.380(5)    39029.    0.2908    0.0000
   8598.766     1.28571    0.368(5)    40316.    0.2907    0.0000
   8607.359     1.28700    0.363(5)    40695.    0.2907    0.0000
   8615.969     1.28829    0.374(5)    39495.    0.2907    0.0000
   8624.594     1.28958    0.398(5)    37231.    0.2907    0.0000
   8633.219     1.29087    0.427(5)    34553.    0.2906    0.0000
   8641.859     1.29216    0.442(5)    33351.    0.2906    0.0000
   8650.516     1.29345    0.449(6)    32795.    0.2906    0.0000
   8659.172     1.29475    0.441(5)    33351.    0.2906    0.0000
   8667.828     1.29604    0.424(5)    34654.    0.2906    0.0000
   8676.5       1.29734    0.422(5)    34905.    0.2905    0.0000
   8685.188     1.29864    0.416(5)    35359.    0.2905    0.0000
   8693.875     1.29993    0.404(5)    36296.    0.2905    0.0000
   8702.563     1.30123    0.390(5)    37270.    0.2905    0.0000
   8711.266     1.30253    0.364(5)    39989.    0.2905    0.0000
   8719.984     1.30384    0.353(5)    41112.    0.2904    0.0000
   8728.703     1.30514    0.336(5)    43299.    0.2904    0.0000
   8737.438     1.30645    0.325(5)    44887.    0.2904    0.0000
   8746.188     1.30776    0.324(5)    44887.    0.2904    0.0000
   8754.938     1.30906    0.327(5)    44455.    0.2904    0.0000
   8763.688     1.31037    0.330(5)    44030.    0.2904    0.0000
   8772.453     1.31168    0.345(5)    42491.    0.2903    0.0000
   8781.234     1.31299    0.360(5)    40378.    0.2903    0.0000
   8790.016     1.31431    0.391(5)    37084.    0.2903    0.0000
   8798.813     1.31562    0.419(5)    34420.    0.2903    0.0000
   8807.625     1.31694    0.443(6)    32611.    0.2903    0.0000
   8816.438     1.31826    0.450(6)    31952.    0.2903    0.0000
   8825.25      1.31958    0.457(6)    31440.    0.2902    0.0000
   8834.078     1.32090    0.480(6)    30070.    0.2902    0.0000
   8842.922     1.32222    0.493(6)    29148.    0.2902    0.0000
   8851.766     1.32354    0.493(6)    29036.    0.2902    0.0000
   8860.625     1.32486    0.464(6)    30763.    0.2902    0.0000
   8869.5       1.32619    0.443(6)    32146.    0.2902    0.0000
   8878.375     1.32752    0.412(5)    34473.    0.2902    0.0000
   8887.25      1.32885    0.397(5)    35657.    0.2902    0.0000
   8896.141     1.33017    0.381(5)    37324.    0.2901    0.0000
   8905.047     1.33151    0.372(5)    37980.    0.2901    0.0000
   8913.953     1.33284    0.352(5)    40237.    0.2901    0.0000
   8922.875     1.33417    0.330(5)    43403.    0.2901    0.0000
   8931.797     1.33551    0.327(5)    43301.    0.2901    0.0000
   8940.734     1.33684    0.331(5)    43102.    0.2901    0.0000
   8949.688     1.33818    0.327(5)    43201.    0.2901    0.0000
   8958.641     1.33952    0.330(5)    42903.    0.2901    0.0000
   8967.609     1.34086    0.356(5)    39900.    0.2901    0.0000
   8976.578     1.34220    0.398(5)    35651.    0.2900    0.0000
   8985.547     1.34354    0.473(6)    30094.    0.2900    0.0000
   8994.531     1.34488    0.546(6)    26108.    0.2900    0.0000
   9003.531     1.34623    0.622(7)    22651.    0.2900    0.0000
   9012.547     1.34758    0.654(7)    21425.    0.2900    0.0000
   9021.563     1.34893    0.652(7)    21346.    0.2900    0.0000
   9030.578     1.35027    0.632(7)    22064.    0.2900    0.0000
   9039.625     1.35163    0.621(7)    22364.    0.2900    0.0000
   9048.672     1.35298    0.605(7)    23039.    0.2900    0.0000
   9057.719     1.35433    0.584(6)    23999.    0.2900    0.0000
   9066.781     1.35569    0.587(6)    23674.    0.2900    0.0000
   9075.859     1.35704    0.565(6)    24498.    0.2900    0.0000
   9084.938     1.35840    0.540(6)    25546.    0.2900    0.0000
   9094.016     1.35976    0.508(6)    27238.    0.2900    0.0000
   9103.125     1.36112    0.490(6)    28344.    0.2900    0.0000
   9112.234     1.36248    0.486(6)    28571.    0.2899    0.0000
   9121.344     1.36384    0.483(6)    28661.    0.2899    0.0000
   9130.469     1.36521    0.464(6)    29642.    0.2899    0.0000
   9139.609     1.36658    0.459(6)    29959.    0.2899    0.0000
   9148.75      1.36794    0.459(6)    29867.    0.2899    0.0000
   9157.906     1.36931    0.456(6)    30278.    0.2899    0.0000
   9167.078     1.37068    0.453(6)    30301.    0.2899    0.0000
   9176.25      1.37205    0.436(6)    31458.    0.2899    0.0000
   9185.422     1.37342    0.433(6)    31366.    0.2899    0.0000
   9194.609     1.37480    0.425(6)    32043.    0.2899    0.0000
   9203.813     1.37617    0.421(6)    32200.    0.2899    0.0000
   9213.016     1.37755    0.444(6)    30717.    0.2899    0.0000
   9222.234     1.37893    0.460(6)    29692.    0.2899    0.0000
   9231.469     1.38031    0.471(6)    28807.    0.2899    0.0000
   9240.703     1.38169    0.471(6)    28507.    0.2899    0.0000
   9249.938     1.38307    0.461(6)    29126.    0.2899    0.0000
   9259.203     1.38446    0.432(6)    31253.    0.2899    0.0000
   9268.469     1.38584    0.422(6)    31888.    0.2899    0.0000
   9277.734     1.38723    0.411(6)    32605.    0.2899    0.0000
   9287.016     1.38861    0.394(5)    33912.    0.2899    0.0000
   9296.313     1.39000    0.381(5)    35109.    0.2899    0.0000
   9305.609     1.39139    0.383(5)    35015.    0.2899    0.0000
   9314.922     1.39279    0.393(5)    34234.    0.2899    0.0000
   9324.25      1.39418    0.430(6)    31464.    0.2899    0.0000
   9333.578     1.39558    0.465(6)    28757.    0.2899    0.0000
   9342.922     1.39697    0.478(6)    27741.    0.2899    0.0000
   9352.266     1.39837    0.482(6)    27253.    0.2899    0.0000
   9361.609     1.39977    0.461(6)    28446.    0.2899    0.0000
   9370.969     1.40117    0.440(6)    30029.    0.2899    0.0000
   9380.344     1.40257    0.430(6)    30592.    0.2900    0.0000
   9389.734     1.40397    0.420(6)    31379.    0.2900    0.0000
   9399.141     1.40538    0.420(6)    31144.    0.2900    0.0000
   9408.547     1.40678    0.414(6)    31617.    0.2900    0.0000
   9417.953     1.40819    0.411(6)    31858.    0.2900    0.0000
   9427.375     1.40960    0.416(6)    31234.    0.2900    0.0000
   9436.813     1.41101    0.422(6)    30657.    0.2900    0.0000
   9446.25      1.41242    0.435(6)    29659.    0.2900    0.0000
   9455.703     1.41383    0.456(6)    28488.    0.2900    0.0000
   9465.172     1.41525    0.476(6)    27023.    0.2900    0.0000
   9474.641     1.41667    0.470(6)    27117.    0.2900    0.0000
   9484.109     1.41808    0.462(6)    27499.    0.2900    0.0000
   9493.594     1.41950    0.472(6)    27297.    0.2900    0.0000
   9503.094     1.42092    0.492(6)    26282.    0.2900    0.0000
   9512.594     1.42234    0.528(6)    24334.    0.2900    0.0000
   9522.109     1.42376    0.569(7)    22459.    0.2900    0.0000
   9531.641     1.42519    0.615(7)    20605.    0.2901    0.0000
   9541.188     1.42661    0.622(7)    20554.    0.2901    0.0000
   9550.734     1.42804    0.612(7)    20543.    0.2901    0.0000
   9560.281     1.42947    0.584(7)    21445.    0.2901    0.0000
   9569.844     1.43090    0.530(7)    23560.    0.2901    0.0000
   9579.422     1.43233    0.480(6)    25998.    0.2901    0.0000
   9589.016     1.43377    0.437(6)    28529.    0.2901    0.0000
   9598.609     1.43520    0.392(6)    31681.    0.2901    0.0000
   9608.203     1.43663    0.377(6)    32643.    0.2901    0.0000
   9617.813     1.43807    0.358(5)    34929.    0.2901    0.0000
   9627.438     1.43951    0.344(5)    36470.    0.2902    0.0000
   9637.078     1.44095    0.330(5)    37597.    0.2902    0.0000
   9646.719     1.44239    0.319(5)    38901.    0.2902    0.0000
   9656.359     1.44383    0.311(5)    39804.    0.2902    0.0000
   9666.031     1.44528    0.306(5)    40563.    0.2902    0.0000
   9675.703     1.44673    0.306(5)    40135.    0.2902    0.0000
   9685.375     1.44817    0.310(5)    39570.    0.2902    0.0000
   9695.063     1.44962    0.304(5)    40395.    0.2902    0.0000
   9704.766     1.45107    0.313(5)    39501.    0.2903    0.0000
   9714.484     1.45252    0.317(5)    38705.    0.2903    0.0000
   9724.203     1.45398    0.325(5)    37184.    0.2903    0.0000
   9733.922     1.45543    0.335(5)    36457.    0.2903    0.0000
   9743.656     1.45689    0.342(5)    35565.    0.2903    0.0000
   9753.406     1.45834    0.353(5)    34359.    0.2903    0.0000
   9763.172     1.45980    0.379(6)    31975.    0.2903    0.0000
   9772.953     1.46127    0.412(6)    29550.    0.2903    0.0000
   9782.734     1.46273    0.446(6)    27207.    0.2904    0.0000
   9792.516     1.46419    0.484(6)    24729.    0.2904    0.0000
   9802.313     1.46566    0.507(7)    23581.    0.2904    0.0000
   9812.125     1.46712    0.528(7)    22719.    0.2904    0.0000
   9821.938     1.46859    0.518(7)    22789.    0.2904    0.0000
   9831.766     1.47006    0.515(7)    22864.    0.2904    0.0000
   9841.594     1.47153    0.511(7)    23072.    0.2905    0.0000
   9851.438     1.47300    0.499(7)    23659.    0.2905    0.0000
   9861.297     1.47447    0.471(6)    24727.    0.2905    0.0000
   9871.156     1.47595    0.446(6)    26036.    0.2905    0.0000
   9881.031     1.47743    0.429(6)    27269.    0.2905    0.0000
   9890.922     1.47890    0.399(6)    29172.    0.2905    0.0000
   9900.828     1.48039    0.390(6)    29578.    0.2906    0.0000
   9910.734     1.48187    0.371(6)    31405.    0.2906    0.0000
   9920.641     1.48335    0.364(6)    32090.    0.2906    0.0000
   9930.563     1.48483    0.367(6)    31603.    0.2906    0.0000
   9940.5       1.48632    0.367(6)    31378.    0.2906    0.0000
   9950.453     1.48780    0.383(6)    30373.    0.2906    0.0000
   9960.406     1.48929    0.410(6)    27895.    0.2907    0.0000
   9970.359     1.49078    0.412(6)    27697.    0.2907    0.0000
   9980.344     1.49227    0.442(6)    26183.    0.2907    0.0000
   9990.328     1.49377    0.487(6)    23740.    0.2907    0.0000
   10000.313    1.49526    0.565(7)    20234.    0.2907    0.0000
   10010.328    1.49676    0.647(8)    17747.    0.2907    0.0000
   10020.344    1.49825    0.735(8)    15508.    0.2908    0.0000
   10030.359    1.49975    0.750(8)    14856.    0.2908    0.0000
   10040.406    1.50125    0.712(8)    15664.    0.2908    0.0000
   10050.453    1.50276    0.665(8)    16840.    0.2908    0.0000
   10060.5      1.50426    0.627(7)    17810.    0.2908    0.0000
   10070.563    1.50576    0.622(7)    18001.    0.2909    0.0000
   10080.641    1.50727    0.642(8)    17593.    0.2909    0.0000
   10090.734    1.50878    0.673(8)    16576.    0.2909    0.0000
   10100.828    1.51029    0.689(8)    16120.    0.2909    0.0000
   10110.938    1.51180    0.676(8)    16468.    0.2909    0.0000
   10121.063    1.51331    0.639(8)    17336.    0.2910    0.0000
   10131.188    1.51483    0.601(7)    18372.    0.2910    0.0000
   10141.313    1.51634    0.597(7)    18620.    0.2910    0.0000
   10151.453    1.51786    0.575(7)    19146.    0.2910    0.0000
   10161.609    1.51938    0.553(7)    19733.    0.2910    0.0000
   10171.781    1.52090    0.539(7)    20415.    0.2911    0.0000
   10181.969    1.52242    0.491(7)    22183.    0.2911    0.0000
   10192.156    1.52394    0.460(7)    23611.    0.2911    0.0000
   10202.344    1.52547    0.433(6)    25181.    0.2911    0.0000
   10212.547    1.52699    0.416(6)    26143.    0.2911    0.0000
   10222.766    1.52852    0.393(6)    27430.    0.2912    0.0000
   10233.0      1.53005    0.375(6)    29184.    0.2912    0.0000
   10243.234    1.53158    0.358(6)    30202.    0.2912    0.0000
   10253.484    1.53311    0.342(6)    31640.    0.2912    0.0000
   10263.75     1.53465    0.346(6)    31231.    0.2912    0.0000
   10274.016    1.53618    0.345(6)    31422.    0.2913    0.0000
   10284.297    1.53772    0.368(6)    29460.    0.2913    0.0000
   10294.578    1.53926    0.396(6)    27322.    0.2913    0.0000
   10304.875    1.54080    0.416(6)    25642.    0.2913    0.0000
   10315.188    1.54234    0.415(6)    25405.    0.2914    0.0000
   10325.516    1.54388    0.412(6)    25798.    0.2914    0.0000
   10335.844    1.54543    0.395(6)    26625.    0.2914    0.0000
   10346.172    1.54697    0.373(6)    28380.    0.2914    0.0000
   10356.531    1.54852    0.371(6)    28645.    0.2914    0.0000
   10366.906    1.55007    0.365(6)    28928.    0.2915    0.0000
   10377.281    1.55162    0.379(6)    28002.    0.2915    0.0000
   10387.656    1.55317    0.415(6)    25556.    0.2915    0.0000
   10398.047    1.55473    0.474(7)    22227.    0.2915    0.0000
   10408.453    1.55628    0.596(7)    17845.    0.2916    0.0000
   10418.859    1.55784    0.707(8)    14779.    0.2916    0.0000
   10429.281    1.55940    0.777(9)    13301.    0.2916    0.0000
   10439.719    1.56096    0.816(9)    12705.    0.2916    0.0000
   10450.156    1.56252    0.827(9)    12356.    0.2916    0.0000
   10460.609    1.56408    0.844(9)    12298.    0.2917    0.0000
   10471.078    1.56564    0.854(9)    11992.    0.2917    0.0000
   10481.563    1.56721    0.827(9)    12268.    0.2917    0.0000
   10492.047    1.56878    0.826(9)    12377.    0.2917    0.0000
   10502.531    1.57035    0.754(9)    13343.    0.2918    0.0000
   10513.047    1.57192    0.682(8)    14823.    0.2918    0.0000
   10523.578    1.57349    0.613(8)    16535.    0.2918    0.0000
   10534.109    1.57507    0.570(8)    17548.    0.2918    0.0000
   10544.641    1.57664    0.522(7)    19354.    0.2919    0.0000
   10555.188    1.57822    0.494(7)    20319.    0.2919    0.0000
   10565.75     1.57980    0.463(7)    21521.    0.2919    0.0000
   10576.313    1.58138    0.450(7)    22320.    0.2919    0.0000
   10586.891    1.58296    0.438(7)    22773.    0.2919    0.0000
   10597.484    1.58454    0.438(7)    22969.    0.2920    0.0000
   10608.094    1.58613    0.448(7)    22332.    0.2920    0.0000
   10618.719    1.58772    0.498(7)    20285.    0.2920    0.0000
   10629.344    1.58931    0.581(8)    17508.    0.2920    0.0000
   10639.969    1.59090    0.727(9)    13723.    0.2921    0.0000
   10650.609    1.59249    0.888(9)    11198.    0.2921    0.0000
   10661.266    1.59408    1.019(10)   9628.     0.2921    0.0000
   10671.938    1.59568    1.079(11)   9009.     0.2921    0.0000
   10682.625    1.59727    1.070(11)   9025.     0.2921    0.0000
   10693.313    1.59887    0.986(10)   9757.     0.2922    0.0000
   10704.0      1.60047    0.901(10)   10746.    0.2922    0.0000
   10714.703    1.60207    0.799(9)    11987.    0.2922    0.0000
   10725.422    1.60367    0.717(9)    13428.    0.2922    0.0000
   10736.156    1.60528    0.670(8)    14299.    0.2923    0.0000
   10746.906    1.60688    0.615(8)    15481.    0.2923    0.0000
   10757.656    1.60849    0.577(8)    16575.    0.2923    0.0000
   10768.422    1.61010    0.543(8)    17499.    0.2923    0.0000
   10779.203    1.61171    0.504(7)    18959.    0.2924    0.0000
   10789.984    1.61333    0.458(7)    20445.    0.2924    0.0000
   10800.766    1.61494    0.411(7)    23123.    0.2924    0.0000
   10811.563    1.61655    0.397(6)    23859.    0.2924    0.0000
   10822.391    1.61817    0.373(6)    25281.    0.2924    0.0000
   10833.219    1.61979    0.355(6)    26516.    0.2925    0.0000
   10844.047    1.62141    0.351(6)    26352.    0.2925    0.0000
   10854.906    1.62303    0.337(6)    27820.    0.2925    0.0000
   10865.781    1.62466    0.324(6)    28516.    0.2925    0.0000
   10876.656    1.62628    0.321(6)    28873.    0.2926    0.0000
   10887.531    1.62791    0.324(6)    28340.    0.2926    0.0000
   10898.422    1.62954    0.315(6)    29222.    0.2926    0.0000
   10909.328    1.63117    0.320(6)    28680.    0.2926    0.0000
   10920.234    1.63280    0.322(6)    28591.    0.2927    0.0000
   10931.156    1.63443    0.313(6)    29482.    0.2927    0.0000
   10942.094    1.63607    0.338(6)    27133.    0.2927    0.0000
   10953.047    1.63771    0.372(6)    25052.    0.2927    0.0000
   10964.016    1.63935    0.435(7)    21219.    0.2927    0.0000
   10974.984    1.64099    0.535(8)    17381.    0.2928    0.0000
   10985.953    1.64263    0.646(8)    14001.    0.2928    0.0000
   10996.938    1.64427    0.710(9)    12728.    0.2928    0.0000
   11007.938    1.64591    0.699(9)    12728.    0.2928    0.0000
   11018.953    1.64756    0.647(9)    13713.    0.2929    0.0000
   11029.984    1.64921    0.583(8)    15192.    0.2929    0.0000
   11041.016    1.65086    0.514(8)    17164.    0.2929    0.0000
   11052.063    1.65251    0.469(7)    19026.    0.2929    0.0000
   11063.125    1.65416    0.422(7)    20966.    0.2929    0.0000
   11074.188    1.65582    0.392(7)    22715.    0.2930    0.0000
   11085.266    1.65747    0.381(7)    23286.    0.2930    0.0000
   11096.359    1.65913    0.397(7)    22294.    0.2930    0.0000
   11107.469    1.66079    0.402(7)    21886.    0.2930    0.0000
   11118.578    1.66246    0.427(7)    20650.    0.2930    0.0000
   11129.703    1.66412    0.433(7)    20146.    0.2931    0.0000
   11140.844    1.66578    0.442(7)    19731.    0.2931    0.0000
   11151.984    1.66745    0.438(7)    19693.    0.2931    0.0000
   11163.141    1.66912    0.436(7)    19943.    0.2931    0.0000
   11174.313    1.67079    0.412(7)    20731.    0.2932    0.0000
   11185.5      1.67246    0.395(7)    21726.    0.2932    0.0000
   11196.688    1.67413    0.382(7)    22015.    0.2932    0.0000
   11207.891    1.67581    0.373(7)    22799.    0.2932    0.0000
   11219.109    1.67749    0.347(6)    24211.    0.2932    0.0000
   11230.328    1.67916    0.346(6)    24482.    0.2933    0.0000
   11241.563    1.68084    0.353(6)    23685.    0.2933    0.0000
   11252.813    1.68253    0.339(6)    24826.    0.2933    0.0000
   11264.063    1.68421    0.335(6)    24826.    0.2933    0.0000
   11275.328    1.68589    0.331(6)    25606.    0.2933    0.0000
   11286.609    1.68758    0.336(6)    24482.    0.2934    0.0000
   11297.906    1.68927    0.343(6)    24147.    0.2934    0.0000
   11309.219    1.69096    0.344(7)    23560.    0.2934    0.0000
   11320.531    1.69265    0.343(6)    23818.    0.2934    0.0000
   11331.859    1.69434    0.339(6)    24147.    0.2934    0.0000
   11343.203    1.69604    0.350(6)    23691.    0.2935    0.0000
   11354.547    1.69774    0.356(7)    22999.    0.2935    0.0000
   11365.906    1.69943    0.375(7)    21994.    0.2935    0.0000
   11377.281    1.70114    0.400(7)    20421.    0.2935    0.0000
   11388.656    1.70284    0.430(7)    18919.    0.2935    0.0000
   11400.047    1.70454    0.449(7)    17923.    0.2936    0.0000
   11411.453    1.70624    0.448(7)    17839.    0.2936    0.0000
   11422.875    1.70795    0.421(7)    18943.    0.2936    0.0000
   11434.313    1.70966    0.412(7)    19314.    0.2936    0.0000
   11445.75     1.71137    0.417(7)    19174.    0.2936    0.0000
   11457.188    1.71308    0.403(7)    19598.    0.2937    0.0000
   11468.641    1.71479    0.396(7)    20097.    0.2937    0.0000
   11480.125    1.71651    0.388(7)    20307.    0.2937    0.0000
   11491.625    1.71823    0.387(7)    20408.    0.2937    0.0000
   11503.125    1.71995    0.379(7)    20612.    0.2937    0.0000
   11514.625    1.72167    0.376(7)    20925.    0.2938    0.0000
   11526.141    1.72339    0.375(7)    20986.    0.2938    0.0000
   11537.672    1.72512    0.404(7)    19489.    0.2938    0.0000
   11549.219    1.72684    0.439(8)    17745.    0.2938    0.0000
   11560.781    1.72857    0.473(8)    16396.    0.2938    0.0000
   11572.344    1.73030    0.495(8)    15558.    0.2939    0.0000
   11583.922    1.73203    0.478(8)    15985.    0.2939    0.0000
   11595.516    1.73376    0.440(8)    17357.    0.2939    0.0000
   11607.109    1.73550    0.413(7)    18474.    0.2939    0.0000
   11618.719    1.73723    0.401(7)    19062.    0.2939    0.0000
   11630.344    1.73897    0.375(7)    20346.    0.2940    0.0000
   11641.984    1.74071    0.370(7)    20657.    0.2940    0.0000
   11653.641    1.74246    0.381(7)    19818.    0.2940    0.0000
   11665.297    1.74420    0.378(7)    19866.    0.2940    0.0000
   11676.969    1.74594    0.380(7)    19733.    0.2940    0.0000
   11688.656    1.74769    0.384(7)    19359.    0.2941    0.0000
   11700.344    1.74944    0.373(7)    19924.    0.2941    0.0000
   11712.047    1.75119    0.372(7)    19791.    0.2941    0.0000
   11723.766    1.75294    0.357(7)    20880.    0.2941    0.0000
   11735.484    1.75469    0.342(7)    21674.    0.2941    0.0000
   11747.219    1.75645    0.342(7)    21790.    0.2941    0.0000
   11758.984    1.75821    0.361(7)    20442.    0.2942    0.0000
   11770.75     1.75997    0.379(7)    19245.    0.2942    0.0000
   11782.516    1.76172    0.393(7)    18636.    0.2942    0.0000
   11794.313    1.76349    0.396(7)    18435.    0.2942    0.0000
   11806.125    1.76525    0.406(7)    18060.    0.2942    0.0000
   11817.938    1.76702    0.430(8)    16813.    0.2943    0.0000
   11829.75     1.76879    0.455(8)    15758.    0.2943    0.0000
   11841.578    1.77056    0.484(8)    14847.    0.2943    0.0000
   11853.438    1.77233    0.466(8)    15365.    0.2943    0.0000
   11865.297    1.77410    0.454(8)    15741.    0.2943    0.0000
   11877.156    1.77587    0.433(8)    16445.    0.2943    0.0000
   11889.047    1.77765    0.399(7)    17816.    0.2944    0.0000
   11900.953    1.77943    0.384(7)    18431.    0.2944    0.0000
   11912.859    1.78121    0.356(7)    19807.    0.2944    0.0000
   11924.766    1.78299    0.332(7)    21238.    0.2944    0.0000
   11936.688    1.78478    0.322(7)    21990.    0.2944    0.0000
   11948.641    1.78656    0.316(7)    22216.    0.2945    0.0000
   11960.594    1.78835    0.318(7)    22045.    0.2945    0.0000
   11972.563    1.79014    0.313(7)    22221.    0.2945    0.0000
   11984.547    1.79193    0.309(7)    22495.    0.2945    0.0000
   11996.531    1.79372    0.318(7)    22057.    0.2945    0.0000
   12008.531    1.79552    0.329(7)    21055.    0.2945    0.0000
   12020.547    1.79731    0.336(7)    20515.    0.2946    0.0000
   12032.578    1.79911    0.350(7)    19617.    0.2946    0.0000
   12044.609    1.80091    0.357(7)    19080.    0.2946    0.0000
   12056.656    1.80271    0.367(7)    18494.    0.2946    0.0000
   12068.719    1.80452    0.352(7)    19005.    0.2946    0.0000
   12080.797    1.80632    0.342(7)    19684.    0.2947    0.0000
   12092.891    1.80813    0.332(7)    20101.    0.2947    0.0000
   12104.984    1.80994    0.331(7)    20007.    0.2947    0.0000
   12117.094    1.81175    0.328(7)    20348.    0.2947    0.0000
   12129.219    1.81356    0.314(7)    21136.    0.2947    0.0000
   12141.359    1.81538    0.308(7)    21399.    0.2948    0.0000
   12153.516    1.81720    0.291(7)    22747.    0.2948    0.0000
   12165.672    1.81901    0.307(7)    21246.    0.2948    0.0000
   12177.844    1.82083    0.307(7)    21304.    0.2948    0.0000
   12190.031    1.82265    0.294(7)    22253.    0.2948    0.0000
   12202.219    1.82448    0.293(7)    22198.    0.2949    0.0000
   12214.422    1.82630    0.300(7)    21672.    0.2949    0.0000
   12226.641    1.82813    0.296(7)    22042.    0.2949    0.0000
   12238.875    1.82996    0.306(7)    21066.    0.2949    0.0000
   12251.125    1.83179    0.310(7)    21016.    0.2949    0.0000
   12263.375    1.83362    0.303(7)    21166.    0.2950    0.0000
   12275.641    1.83546    0.321(7)    19745.    0.2950    0.0000
   12287.922    1.83729    0.325(7)    19477.    0.2950    0.0000
   12300.219    1.83913    0.317(7)    20214.    0.2950    0.0000
   12312.531    1.84097    0.321(7)    19801.    0.2950    0.0000
   12324.844    1.84281    0.324(7)    19268.    0.2951    0.0000
   12337.172    1.84466    0.314(7)    20084.    0.2951    0.0000
   12349.516    1.84650    0.312(7)    19947.    0.2951    0.0000
   12361.875    1.84835    0.313(7)    19866.    0.2951    0.0000
   12374.25     1.85020    0.312(7)    20048.    0.2951    0.0000
   12386.625    1.85205    0.318(7)    19553.    0.2952    0.0000
   12399.016    1.85390    0.320(7)    19475.    0.2952    0.0000
   12411.422    1.85576    0.331(7)    18710.    0.2952    0.0000
   12423.844    1.85761    0.354(8)    17619.    0.2952    0.0000
   12436.281    1.85947    0.395(8)    15847.    0.2953    0.0000
   12448.719    1.86133    0.446(8)    13872.    0.2953    0.0000
   12461.172    1.86320    0.528(9)    11574.    0.2953    0.0000
   12473.641    1.86506    0.588(10)   10210.    0.2953    0.0000
   12486.125    1.86693    0.609(10)   9826.     0.2953    0.0000
   12498.625    1.86880    0.594(10)   10000.    0.2954    0.0000
   12511.125    1.87066    0.562(10)   10515.    0.2954    0.0000
   12523.641    1.87254    0.527(9)    11221.    0.2954    0.0000
   12536.172    1.87441    0.489(9)    12041.    0.2954    0.0000
   12548.703    1.87628    0.455(9)    12907.    0.2955    0.0000
   12561.25     1.87816    0.427(8)    13888.    0.2955    0.0000
   12573.828    1.88004    0.404(8)    14496.    0.2955    0.0000
   12586.406    1.88192    0.368(8)    15877.    0.2955    0.0000
   12599.0      1.88380    0.359(8)    16329.    0.2956    0.0000
   12611.609    1.88569    0.350(8)    16616.    0.2956    0.0000
   12624.219    1.88757    0.353(8)    16529.    0.2956    0.0000
   12636.859    1.88946    0.339(8)    16989.    0.2957    0.0000
   12649.5      1.89135    0.335(8)    17010.    0.2957    0.0000
   12662.156    1.89325    0.340(8)    17073.    0.2957    0.0000
   12674.828    1.89514    0.356(8)    16050.    0.2957    0.0000
   12687.5      1.89704    0.376(8)    15322.    0.2958    0.0000
   12700.203    1.89894    0.401(8)    14452.    0.2958    0.0000
   12712.906    1.90083    0.433(9)    13255.    0.2958    0.0000
   12725.625    1.90274    0.429(9)    13314.    0.2958    0.0000
   12738.359    1.90464    0.431(9)    13106.    0.2959    0.0000
   12751.094    1.90654    0.418(9)    13459.    0.2959    0.0000
   12763.859    1.90845    0.392(8)    14457.    0.2959    0.0000
   12776.641    1.91036    0.395(8)    14322.    0.2960    0.0000
   12789.422    1.91228    0.394(8)    14457.    0.2960    0.0000
   12802.203    1.91419    0.422(9)    13355.    0.2960    0.0000
   12815.016    1.91610    0.452(9)    12323.    0.2961    0.0000
   12827.844    1.91802    0.447(9)    12284.    0.2961    0.0000
   12840.672    1.91994    0.420(9)    13034.    0.2961    0.0000
   12853.516    1.92186    0.394(8)    13885.    0.2962    0.0000
   12866.375    1.92378    0.370(8)    14698.    0.2962    0.0000
   12879.25     1.92571    0.354(8)    15415.    0.2962    0.0000
   12892.141    1.92763    0.335(8)    16200.    0.2963    0.0000
   12905.047    1.92956    0.326(8)    16558.    0.2963    0.0000
   12917.953    1.93149    0.305(8)    17703.    0.2963    0.0000
   12930.875    1.93343    0.309(8)    17428.    0.2964    0.0000
   12943.813    1.93536    0.309(8)    17357.    0.2964    0.0000
   12956.766    1.93730    0.302(7)    17949.    0.2965    0.0000
   12969.734    1.93924    0.306(8)    17620.    0.2965    0.0000
   12982.703    1.94117    0.321(8)    16819.    0.2965    0.0000
   12995.688    1.94312    0.338(8)    15685.    0.2966    0.0000
   13008.688    1.94506    0.349(8)    15213.    0.2966    0.0000
   13021.703    1.94701    0.370(8)    14319.    0.2966    0.0000
   13034.734    1.94895    0.383(9)    13684.    0.2967    0.0000
   13047.781    1.95090    0.388(9)    13292.    0.2967    0.0000
   13060.828    1.95286    0.366(8)    14085.    0.2968    0.0000
   13073.891    1.95481    0.354(8)    14781.    0.2968    0.0000
   13086.984    1.95677    0.343(8)    15173.    0.2969    0.0000
   13100.078    1.95872    0.322(8)    15912.    0.2969    0.0000
   13113.172    1.96068    0.330(8)    15551.    0.2969    0.0000
   13126.281    1.96264    0.309(8)    16429.    0.2970    0.0000
   13139.422    1.96461    0.303(8)    16669.    0.2970    0.0000
   13152.578    1.96657    0.295(8)    17035.    0.2971    0.0000
   13165.734    1.96854    0.308(8)    16158.    0.2971    0.0000
   13178.906    1.97051    0.301(8)    16489.    0.2972    0.0000
   13192.094    1.97248    0.308(8)    16172.    0.2972    0.0000
   13205.297    1.97446    0.308(8)    16375.    0.2973    0.0000
   13218.516    1.97643    0.307(8)    16093.    0.2973    0.0000
   13231.734    1.97841    0.291(8)    16994.    0.2974    0.0000
   13244.969    1.98039    0.303(8)    16389.    0.2974    0.0000
   13258.219    1.98237    0.307(8)    15894.    0.2975    0.0000
   13271.484    1.98435    0.310(8)    15818.    0.2975    0.0000
   13284.766    1.98634    0.305(8)    16030.    0.2976    0.0000
   13298.047    1.98832    0.305(8)    16030.    0.2976    0.0000
   13311.344    1.99031    0.303(8)    16198.    0.2977    0.0000
   13324.672    1.99231    0.313(8)    15523.    0.2977    0.0000
   13338.016    1.99430    0.328(8)    14715.    0.2978    0.0000
   13351.359    1.99630    0.363(9)    13440.    0.2979    0.0000
   13364.719    1.99829    0.388(9)    12506.    0.2979    0.0000
   13378.094    2.00029    0.427(9)    11161.    0.2980    0.0000
   13391.469    2.00229    0.443(10)   10717.    0.2980    0.0000
   13404.859    2.00430    0.431(10)   10970.    0.2981    0.0000
   13418.266    2.00630    0.410(9)    11521.    0.2982    0.0000
   13431.688    2.00831    0.393(9)    11877.    0.2982    0.0000
   13445.141    2.01032    0.377(9)    12349.    0.2983    0.0000
   13458.594    2.01233    0.351(9)    13259.    0.2983    0.0000
   13472.047    2.01434    0.332(8)    14008.    0.2984    0.0000
   13485.531    2.01636    0.333(8)    13974.    0.2985    0.0000
   13499.031    2.01838    0.330(8)    13901.    0.2985    0.0000
   13512.531    2.02040    0.316(8)    14555.    0.2986    0.0000
   13526.047    2.02242    0.318(8)    14390.    0.2987    0.0000
   13539.578    2.02444    0.312(8)    14544.    0.2987    0.0000
   13553.125    2.02646    0.304(8)    14956.    0.2988    0.0000
   13566.688    2.02849    0.312(8)    14534.    0.2989    0.0000
   13580.266    2.03052    0.306(8)    14784.    0.2990    0.0000
   13593.859    2.03256    0.294(8)    15217.    0.2990    0.0000
   13607.453    2.03459    0.296(8)    15161.    0.2991    0.0000
   13621.063    2.03662    0.306(8)    14538.    0.2992    0.0000
   13634.688    2.03866    0.293(8)    15259.    0.2993    0.0000
   13648.328    2.04070    0.291(8)    15191.    0.2993    0.0000
   13661.984    2.04274    0.294(8)    15001.    0.2994    0.0000
   13675.656    2.04479    0.289(8)    15427.    0.2995    0.0000
   13689.344    2.04683    0.315(8)    13947.    0.2996    0.0000
   13703.031    2.04888    0.308(8)    14166.    0.2996    0.0000
   13716.734    2.05093    0.317(9)    13796.    0.2997    0.0000
   13730.469    2.05298    0.318(9)    13741.    0.2998    0.0000
   13744.219    2.05504    0.321(9)    13396.    0.2999    0.0000
   13757.969    2.05709    0.345(9)    12296.    0.3000    0.0000
   13771.734    2.05915    0.335(9)    12636.    0.3001    0.0000
   13785.516    2.06121    0.355(9)    11982.    0.3001    0.0000
   13799.297    2.06327    0.354(9)    12097.    0.3002    0.0000
   13813.094    2.06534    0.385(10)   10983.    0.3003    0.0000
   13826.922    2.06740    0.404(10)   10392.    0.3004    0.0000
   13840.766    2.06947    0.400(10)   10423.    0.3005    0.0000
   13854.609    2.07154    0.388(10)   10818.    0.3006    0.0000
   13868.469    2.07362    0.373(9)    11150.    0.3007    0.0000
   13882.344    2.07569    0.356(9)    11659.    0.3008    0.0000
   13896.234    2.07777    0.348(9)    11693.    0.3009    0.0000
   13910.141    2.07985    0.323(9)    12700.    0.3010    0.0000
   13924.047    2.08193    0.312(9)    13100.    0.3011    0.0000
   13937.969    2.08401    0.313(9)    12966.    0.3012    0.0000
   13951.922    2.08609    0.321(9)    12711.    0.3013    0.0000
   13965.891    2.08818    0.322(9)    12488.    0.3014    0.0000
   13979.859    2.09027    0.315(9)    12711.    0.3015    0.0000
   13993.844    2.09236    0.314(9)    12747.    0.3016    0.0000
   14007.844    2.09446    0.315(9)    12625.    0.3017    0.0000
   14021.859    2.09655    0.317(9)    12500.    0.3018    0.0000
   14035.891    2.09865    0.305(9)    13034.    0.3019    0.0000
   14049.938    2.10075    0.308(9)    12882.    0.3020    0.0000
   14064.0      2.10285    0.308(9)    12840.    0.3021    0.0000
   14078.063    2.10495    0.302(9)    13050.    0.3022    0.0000
   14092.141    2.10706    0.307(9)    12898.    0.3023    0.0000
   14106.25     2.10917    0.302(9)    13039.    0.3024    0.0000
   14120.359    2.11128    0.300(9)    13002.    0.3026    0.0000
   14134.484    2.11339    0.309(9)    12503.    0.3027    0.0000
   14148.625    2.11551    0.314(9)    12370.    0.3028    0.0000
   14162.781    2.11762    0.305(9)    12699.    0.3029    0.0000
   14176.953    2.11974    0.326(9)    11678.    0.3030    0.0000
   14191.125    2.12186    0.316(9)    12133.    0.3031    0.0000
   14205.328    2.12398    0.321(9)    11709.    0.3033    0.0000
   14219.547    2.12611    0.305(9)    12282.    0.3034    0.0000
   14233.766    2.12824    0.314(9)    11981.    0.3035    0.0000
   14248.0      2.13036    0.321(9)    11851.    0.3036    0.0000
   14262.266    2.13250    0.319(9)    11867.    0.3038    0.0000
   14276.547    2.13463    0.330(9)    11478.    0.3039    0.0000
   14290.828    2.13677    0.324(9)    11513.    0.3040    0.0000
   14305.125    2.13891    0.326(9)    11290.    0.3042    0.0000
   14319.438    2.14105    0.320(9)    11668.    0.3043    0.0000
   14333.766    2.14319    0.333(9)    11107.    0.3044    0.0000
   14348.109    2.14533    0.323(9)    11424.    0.3045    0.0000
   14362.453    2.14748    0.326(9)    11272.    0.3047    0.0000
   14376.813    2.14962    0.322(9)    11271.    0.3048    0.0000
   14391.203    2.15178    0.317(9)    11576.    0.3050    0.0000
   14405.609    2.15393    0.314(9)    11558.    0.3051    0.0000
   14420.016    2.15608    0.313(9)    11628.    0.3052    0.0000
   14434.438    2.15824    0.317(9)    11353.    0.3054    0.0000
   14448.891    2.16040    0.327(10)   10929.    0.3055    0.0000
   14463.344    2.16256    0.338(10)   10440.    0.3057    0.0000
   14477.813    2.16473    0.350(10)   10069.    0.3058    0.0000
   14492.313    2.16689    0.376(10)   9445.     0.3059    0.0000
   14506.813    2.16906    0.384(10)   9076.     0.3061    0.0000
   14521.313    2.17123    0.377(10)   9197.     0.3062    0.0000
   14535.844    2.17340    0.376(10)   9227.     0.3064    0.0000
   14550.391    2.17558    0.378(11)   9009.     0.3065    0.0000
   14564.938    2.17775    0.351(10)   9841.     0.3067    0.0000
   14579.516    2.17993    0.330(10)   10271.    0.3068    0.0000
   14594.109    2.18212    0.310(9)    11183.    0.3070    0.0000
   14608.703    2.18430    0.318(10)   10758.    0.3072    0.0000
   14623.313    2.18648    0.312(10)   10960.    0.3073    0.0000
   14637.953    2.18867    0.323(10)   10534.    0.3075    0.0000
   14652.609    2.19086    0.301(9)    11329.    0.3076    0.0000
   14667.266    2.19305    0.316(10)   10698.    0.3078    0.0000
   14681.938    2.19525    0.321(10)   10564.    0.3079    0.0000
   14696.625    2.19744    0.320(10)   10623.    0.3081    0.0000
   14711.328    2.19964    0.326(10)   10535.    0.3083    0.0000
   14726.047    2.20184    0.325(10)   10304.    0.3084    0.0000
   14740.781    2.20405    0.326(10)   10207.    0.3086    0.0000
   14755.531    2.20625    0.338(10)   9839.     0.3088    0.0000
   14770.297    2.20846    0.324(10)   10464.    0.3089    0.0000
   14785.078    2.21067    0.333(10)   10083.    0.3091    0.0000
   14799.859    2.21288    0.330(10)   10056.    0.3093    0.0000
   14814.656    2.21509    0.321(10)   10364.    0.3094    0.0000
   14829.484    2.21731    0.320(10)   10323.    0.3096    0.0000
   14844.328    2.21953    0.323(10)   10280.    0.3098    0.0000
   14859.172    2.22175    0.317(10)   10494.    0.3100    0.0000
   14874.031    2.22397    0.329(10)   9873.     0.3101    0.0000
   14888.922    2.22620    0.349(10)   9237.     0.3103    0.0000
   14903.828    2.22843    0.340(10)   9529.     0.3105    0.0000
   14918.734    2.23066    0.365(11)   8912.     0.3107    0.0000
   14933.656    2.23289    0.357(10)   9145.     0.3109    0.0000
   14948.594    2.23512    0.359(10)   9169.     0.3110    0.0000
   14963.547    2.23736    0.355(11)   8941.     0.3112    0.0000
   14978.516    2.23959    0.356(11)   8964.     0.3114    0.0000
   14993.5      2.24183    0.352(11)   9047.     0.3116    0.0000
   15008.516    2.24408    0.337(10)   9564.     0.3118    0.0000
   15023.531    2.24633    0.355(11)   8878.     0.3119    0.0000
   15038.563    2.24857    0.338(10)   9480.     0.3121    0.0000
   15053.609    2.25082    0.342(11)   9051.     0.3123    0.0000
   15068.656    2.25307    0.328(10)   9579.     0.3125    0.0000
   15083.734    2.25533    0.319(10)   9835.     0.3127    0.0000
   15098.828    2.25758    0.324(10)   9606.     0.3129    0.0000
   15113.938    2.25984    0.321(10)   9824.     0.3131    0.0000
   15129.063    2.26211    0.315(10)   10033.    0.3133    0.0000
   15144.203    2.26437    0.329(10)   9463.     0.3135    0.0000
   15159.359    2.26664    0.307(10)   10115.    0.3137    0.0000
   15174.516    2.26890    0.316(10)   9877.     0.3138    0.0000
   15189.688    2.27117    0.351(11)   8757.     0.3140    0.0000
   15204.891    2.27344    0.386(11)   8081.     0.3142    0.0000
   15220.109    2.27572    0.437(12)   7220.     0.3144    0.0000
   15235.344    2.27800    0.557(13)   5716.     0.3146    0.0000
   15250.594    2.28028    0.742(15)   4258.     0.3148    0.0000
   15265.844    2.28256    0.943(18)   3243.     0.3150    0.0000
   15281.109    2.28484    1.004(18)   3002.     0.3152    0.0000
   15296.406    2.28713    0.921(18)   3197.     0.3154    0.0000
   15311.719    2.28942    0.794(16)   3695.     0.3156    0.0000
   15327.031    2.29171    0.648(15)   4566.     0.3158    0.0000
   15342.359    2.29400    0.551(14)   5354.     0.3160    0.0000
   15357.703    2.29629    0.484(13)   6073.     0.3162    0.0000
   15373.063    2.29859    0.430(12)   6885.     0.3164    0.0000
   15388.453    2.30089    0.378(11)   7768.     0.3166    0.0000
   15403.859    2.30319    0.379(11)   7795.     0.3168    0.0000
   15419.266    2.30550    0.363(11)   8023.     0.3170    0.0000
   15434.688    2.30780    0.360(11)   8150.     0.3172    0.0000
   15450.125    2.31011    0.341(11)   8586.     0.3174    0.0000
   15465.578    2.31242    0.332(11)   8853.     0.3176    0.0000
   15481.063    2.31474    0.335(11)   8719.     0.3178    0.0000
   15496.563    2.31706    0.318(10)   9257.     0.3180    0.0000
   15512.063    2.31937    0.326(11)   8771.     0.3182    0.0000
   15527.578    2.32169    0.332(11)   8587.     0.3184    0.0000
   15543.109    2.32402    0.340(11)   8506.     0.3186    0.0000
   15558.656    2.32634    0.359(11)   8046.     0.3188    0.0000
   15574.234    2.32867    0.378(11)   7692.     0.3191    0.0000
   15589.813    2.33100    0.438(12)   6653.     0.3193    0.0000
   15605.406    2.33333    0.533(13)   5505.     0.3195    0.0000
   15621.031    2.33567    0.725(16)   4057.     0.3197    0.0000
   15636.656    2.33800    0.999(19)   2919.     0.3199    0.0000
   15652.297    2.34034    1.310(21)   2174.     0.3201    0.0000
   15667.953    2.34268    1.497(23)   1872.     0.3203    0.0000
   15683.625    2.34503    1.494(23)   1859.     0.3205    0.0000
   15699.328    2.34738    1.372(22)   2027.     0.3207    0.0000
   15715.031    2.34972    1.152(20)   2399.     0.3209    0.0000
   15730.75     2.35207    0.996(19)   2791.     0.3211    0.0000
   15746.5      2.35443    0.832(17)   3324.     0.3213    0.0000
   15762.25     2.35678    0.683(16)   4053.     0.3215    0.0000
   15778.016    2.35914    0.606(15)   4587.     0.3217    0.0000
   15793.797    2.36150    0.564(14)   4872.     0.3219    0.0000
   15809.594    2.36386    0.537(14)   5083.     0.3221    0.0000
   15825.422    2.36623    0.519(14)   5420.     0.3223    0.0000
   15841.266    2.36860    0.576(14)   4872.     0.3225    0.0000
   15857.109    2.37097    0.678(16)   4125.     0.3227    0.0000
   15872.969    2.37334    0.834(17)   3379.     0.3229    0.0000
   15888.844    2.37571    1.046(19)   2664.     0.3231    0.0000
   15904.734    2.37809    1.258(21)   2204.     0.3233    0.0000
   15920.656    2.38047    1.506(23)   1828.     0.3235    0.0000
   15936.594    2.38285    1.780(25)   1542.     0.3237    0.0000
   15952.531    2.38524    1.943(27)   1389.     0.3239    0.0000
   15968.484    2.38762    1.920(27)   1386.     0.3241    0.0000
   15984.469    2.39001    1.752(26)   1514.     0.3242    0.0000
   16000.469    2.39240    1.396(23)   1902.     0.3244    0.0000
   16016.469    2.39480    1.164(21)   2262.     0.3246    0.0000
   16032.484    2.39719    0.968(19)   2739.     0.3248    0.0000
   16048.531    2.39959    0.779(17)   3402.     0.3250    0.0000
   16064.594    2.40199    0.662(16)   3958.     0.3252    0.0000
   16080.672    2.40440    0.554(15)   4742.     0.3254    0.0000
   16096.766    2.40680    0.482(14)   5480.     0.3256    0.0000
   16112.859    2.40921    0.443(13)   5941.     0.3257    0.0000
   16128.969    2.41162    0.402(12)   6494.     0.3259    0.0000
   16145.109    2.41403    0.390(12)   6665.     0.3261    0.0000
   16161.266    2.41645    0.386(12)   6658.     0.3263    0.0000
   16177.438    2.41887    0.347(12)   7509.     0.3265    0.0000
   16193.625    2.42129    0.361(12)   7138.     0.3266    0.0000
   16209.828    2.42371    0.350(12)   7427.     0.3268    0.0000
   16226.047    2.42613    0.326(11)   7863.     0.3270    0.0000
   16242.281    2.42856    0.348(12)   7330.     0.3272    0.0000
   16258.531    2.43099    0.321(11)   7928.     0.3273    0.0000
   16274.797    2.43342    0.331(11)   7712.     0.3275    0.0000
   16291.078    2.43586    0.331(11)   7745.     0.3277    0.0000
   16307.375    2.43830    0.321(11)   7851.     0.3278    0.0000
   16323.688    2.44073    0.328(11)   7601.     0.3280    0.0000
   16340.016    2.44318    0.348(12)   7171.     0.3281    0.0000
   16356.375    2.44562    0.341(12)   7281.     0.3283    0.0000
   16372.75     2.44807    0.341(12)   7221.     0.3284    0.0000
   16389.125    2.45052    0.327(11)   7595.     0.3286    0.0000
   16405.516    2.45297    0.325(12)   7433.     0.3287    0.0000
   16421.922    2.45542    0.334(12)   7167.     0.3289    0.0000
   16438.344    2.45788    0.324(12)   7375.     0.3290    0.0000
   16454.797    2.46034    0.315(11)   7789.     0.3292    0.0000
   16471.266    2.46280    0.321(12)   7505.     0.3293    0.0000
   16487.75     2.46527    0.334(12)   7197.     0.3295    0.0000
   16504.25     2.46773    0.351(12)   6732.     0.3296    0.0000
   16520.766    2.47020    0.338(12)   7042.     0.3297    0.0000
   16537.297    2.47268    0.339(12)   7056.     0.3299    0.0000
   16553.828    2.47515    0.345(12)   6880.     0.3300    0.0000
   16570.391    2.47762    0.356(12)   6695.     0.3301    0.0000
   16586.969    2.48010    0.340(12)   6969.     0.3302    0.0000
   16603.563    2.48258    0.326(12)   7314.     0.3304    0.0000
   16620.188    2.48507    0.332(12)   7165.     0.3305    0.0000
   16636.813    2.48756    0.353(12)   6596.     0.3306    0.0000
   16653.453    2.49004    0.353(12)   6686.     0.3307    0.0000
   16670.109    2.49254    0.340(12)   6833.     0.3308    0.0000
   16686.781    2.49503    0.345(12)   6811.     0.3309    0.0000
   16703.484    2.49753    0.346(12)   6796.     0.3310    0.0000
   16720.203    2.50003    0.376(13)   6138.     0.3311    0.0000
   16736.922    2.50253    0.376(13)   6155.     0.3312    0.0000
   16753.672    2.50503    0.352(12)   6547.     0.3313    0.0000
   16770.438    2.50754    0.354(12)   6491.     0.3314    0.0000
   16787.203    2.51004    0.345(12)   6643.     0.3315    0.0000
   16804.0      2.51256    0.353(12)   6552.     0.3316    0.0000
   16820.813    2.51507    0.348(12)   6578.     0.3316    0.0000
   16837.641    2.51759    0.345(12)   6570.     0.3317    0.0000
   16854.5      2.52011    0.345(12)   6532.     0.3318    0.0000
   16871.359    2.52263    0.338(12)   6660.     0.3319    0.0000
   16888.234    2.52515    0.355(13)   6336.     0.3319    0.0000
   16905.141    2.52768    0.343(12)   6518.     0.3320    0.0000
   16922.047    2.53021    0.339(12)   6638.     0.3320    0.0000
   16938.969    2.53274    0.337(12)   6760.     0.3321    0.0000
   16955.922    2.53527    0.335(12)   6675.     0.3322    0.0000
   16972.891    2.53781    0.352(13)   6317.     0.3322    0.0000
   16989.875    2.54035    0.348(13)   6340.     0.3322    0.0000
   17006.875    2.54289    0.336(12)   6674.     0.3323    0.0000
   17023.891    2.54544    0.336(12)   6565.     0.3323    0.0000
   17040.922    2.54798    0.324(12)   6717.     0.3324    0.0000
   17057.969    2.55053    0.338(12)   6496.     0.3324    0.0000
   17075.031    2.55308    0.321(12)   6814.     0.3324    0.0000
   17092.109    2.55564    0.324(12)   6793.     0.3324    0.0000
   17109.219    2.55820    0.343(13)   6228.     0.3324    0.0000
   17126.344    2.56076    0.327(12)   6606.     0.3325    0.0000
   17143.469    2.56332    0.325(12)   6701.     0.3325    0.0000
   17160.625    2.56588    0.302(12)   7176.     0.3325    0.0000
   17177.797    2.56845    0.329(12)   6445.     0.3325    0.0000
   17194.984    2.57102    0.344(13)   6104.     0.3325    0.0000
   17212.188    2.57359    0.327(12)   6579.     0.3325    0.0000
   17229.406    2.57617    0.335(12)   6413.     0.3325    0.0000
   17246.656    2.57875    0.347(13)   6165.     0.3324    0.0000
   17263.906    2.58133    0.348(13)   6065.     0.3324    0.0000
   17281.172    2.58391    0.355(13)   5963.     0.3324    0.0000
   17298.469    2.58649    0.341(13)   6181.     0.3324    0.0000
   17315.781    2.58908    0.373(13)   5666.     0.3323    0.0000
   17333.094    2.59167    0.374(13)   5617.     0.3323    0.0000
   17350.438    2.59427    0.370(13)   5628.     0.3323    0.0000
   17367.797    2.59686    0.368(13)   5623.     0.3322    0.0000
   17385.172    2.59946    0.390(14)   5273.     0.3322    0.0000
   17402.563    2.60206    0.390(14)   5228.     0.3321    0.0000
   17419.969    2.60466    0.404(14)   5053.     0.3321    0.0000
   17437.406    2.60727    0.390(14)   5346.     0.3320    0.0000
   17454.844    2.60988    0.395(14)   5310.     0.3320    0.0000
   17472.313    2.61249    0.430(14)   4849.     0.3319    0.0000
   17489.797    2.61510    0.499(16)   4116.     0.3318    0.0000
   17507.297    2.61772    0.582(17)   3587.     0.3317    0.0000
   17524.813    2.62034    0.808(20)   2609.     0.3317    0.0000
   17542.344    2.62296    1.108(23)   1902.     0.3316    0.0000
   17559.906    2.62559    1.529(27)   1326.     0.3315    0.0000
   17577.469    2.62821    1.820(30)   1092.     0.3314    0.0000
   17595.047    2.63084    1.896(31)   1030.     0.3313    0.0000
   17612.656    2.63348    1.766(30)   1088.     0.3312    0.0000
   17630.281    2.63611    1.493(28)   1286.     0.3311    0.0000
   17647.922    2.63875    1.262(26)   1522.     0.3310    0.0000
   17665.578    2.64139    1.021(23)   1879.     0.3309    0.0000
   17683.25     2.64403    0.856(21)   2219.     0.3308    0.0000
   17700.938    2.64668    0.733(20)   2607.     0.3307    0.0000
   17718.641    2.64932    0.668(19)   2883.     0.3306    0.0000
   17736.375    2.65198    0.652(18)   2941.     0.3305    0.0000
   17754.125    2.65463    0.661(19)   2883.     0.3304    0.0000
   17771.891    2.65729    0.674(19)   2821.     0.3303    0.0000
   17789.672    2.65995    0.662(19)   2863.     0.3301    0.0000
   17807.469    2.66261    0.601(18)   3144.     0.3300    0.0000
   17825.281    2.66527    0.595(18)   3097.     0.3299    0.0000
   17843.109    2.66794    0.521(17)   3629.     0.3298    0.0000
   17860.969    2.67061    0.481(16)   3904.     0.3296    0.0000
   17878.844    2.67328    0.423(15)   4482.     0.3295    0.0000
   17896.719    2.67595    0.400(15)   4719.     0.3294    0.0000
   17914.625    2.67863    0.391(14)   4774.     0.3292    0.0000
   17932.563    2.68131    0.371(14)   4964.     0.3291    0.0000
   17950.5      2.68400    0.380(14)   4796.     0.3290    0.0000
   17968.453    2.68668    0.365(14)   4934.     0.3288    0.0000
   17986.438    2.68937    0.360(14)   4963.     0.3287    0.0000
   18004.438    2.69206    0.365(14)   4815.     0.3286    0.0000
   18022.438    2.69475    0.366(14)   4782.     0.3284    0.0000
   18040.469    2.69745    0.383(15)   4625.     0.3283    0.0000
   18058.531    2.70015    0.393(15)   4479.     0.3282    0.0000
   18076.594    2.70285    0.393(15)   4400.     0.3280    0.0000
   18094.672    2.70555    0.385(15)   4419.     0.3279    0.0000
   18112.781    2.70826    0.374(15)   4660.     0.3277    0.0000
   18130.906    2.71097    0.377(15)   4483.     0.3276    0.0000
   18149.047    2.71368    0.385(15)   4350.     0.3275    0.0000
   18167.203    2.71640    0.381(15)   4466.     0.3274    0.0000
   18185.375    2.71912    0.397(15)   4249.     0.3272    0.0000
   18203.563    2.72184    0.488(17)   3494.     0.3271    0.0000
   18221.766    2.72456    0.597(19)   2821.     0.3270    0.0000
   18240.0      2.72729    0.736(21)   2234.     0.3269    0.0000
   18258.25     2.73001    0.786(22)   2022.     0.3267    0.0000
   18276.516    2.73275    0.735(22)   2122.     0.3266    0.0000
   18294.813    2.73548    0.640(20)   2444.     0.3265    0.0000
   18313.125    2.73822    0.561(19)   2745.     0.3264    0.0000
   18331.438    2.74096    0.490(18)   3157.     0.3263    0.0000
   18349.781    2.74370    0.460(17)   3343.     0.3262    0.0000
   18368.141    2.74645    0.417(17)   3627.     0.3261    0.0000
   18386.516    2.74919    0.407(16)   3757.     0.3261    0.0000
   18404.922    2.75195    0.435(17)   3528.     0.3260    0.0000
   18423.328    2.75470    0.503(18)   3008.     0.3259    0.0000
   18441.75     2.75745    0.572(19)   2663.     0.3259    0.0000
   18460.203    2.76021    0.641(21)   2301.     0.3258    0.0000
   18478.672    2.76298    0.699(22)   2089.     0.3258    0.0000
   18497.156    2.76574    0.736(23)   1953.     0.3257    0.0000
   18515.672    2.76851    0.786(23)   1822.     0.3257    0.0000
   18534.203    2.77128    0.858(24)   1667.     0.3257    0.0000
   18552.75     2.77405    0.947(26)   1494.     0.3257    0.0000
   18571.313    2.77683    0.996(27)   1382.     0.3257    0.0000
   18589.891    2.77961    0.943(26)   1448.     0.3257    0.0000
   18608.484    2.78239    0.869(25)   1546.     0.3257    0.0000
   18627.094    2.78517    0.756(24)   1761.     0.3258    0.0000
   18645.734    2.78796    0.695(23)   1886.     0.3258    0.0000
   18664.391    2.79075    0.587(21)   2227.     0.3259    0.0000
   18683.063    2.79354    0.522(20)   2493.     0.3260    0.0000
   18701.766    2.79634    0.475(19)   2752.     0.3261    0.0000
   18720.484    2.79913    0.446(18)   2963.     0.3262    0.0000
   18739.203    2.80193    0.409(18)   3194.     0.3263    0.0000
   18757.938    2.80474    0.417(18)   3052.     0.3265    0.0000
   18776.703    2.80754    0.379(17)   3366.     0.3267    0.0000
   18795.5      2.81035    0.355(17)   3540.     0.3269    0.0000
   18814.313    2.81317    0.365(17)   3441.     0.3271    0.0000
   18833.125    2.81598    0.362(17)   3396.     0.3273    0.0000
   18851.969    2.81880    0.381(18)   3197.     0.3275    0.0000
   18870.844    2.82162    0.376(18)   3197.     0.3278    0.0000
   18889.719    2.82444    0.381(18)   3089.     0.3281    0.0000
   18908.609    2.82727    0.384(18)   3125.     0.3284    0.0000
   18927.531    2.83010    0.388(18)   3137.     0.3288    0.0000
   18946.469    2.83293    0.413(19)   2867.     0.3292    0.0000
   18965.422    2.83576    0.480(20)   2425.     0.3296    0.0000
   18984.406    2.83860    0.623(23)   1875.     0.3300    0.0000
   19003.406    2.84144    0.781(26)   1501.     0.3305    0.0000
   19022.406    2.84428    1.031(30)   1119.     0.3309    0.0000
   19041.438    2.84713    1.278(34)   879.      0.3315    0.0000
   19060.5      2.84998    1.51(4)     740.      0.332     0.000 
   19079.563    2.85283    1.46(4)     747.      0.333     0.000 
   19098.641    2.85568    1.34(4)     804.      0.333     0.000 
   19117.75     2.85854    1.138(33)   937.      0.3339    0.0000
   19136.875    2.86140    1.003(31)   1046.     0.3346    0.0000
   19156.016    2.86426    0.822(28)   1276.     0.3353    0.0000
   19175.188    2.86713    0.690(26)   1522.     0.3361    0.0000
   19194.375    2.87000    0.581(24)   1792.     0.3369    0.0000
   19213.578    2.87287    0.508(22)   2053.     0.3378    0.0000
   19232.813    2.87575    0.460(21)   2223.     0.3387    0.0000
   19252.063    2.87863    0.410(20)   2438.     0.3396    0.0000
   19271.313    2.88150    0.438(21)   2237.     0.3406    0.0000
   19290.594    2.88439    0.421(20)   2382.     0.3416    0.0000
   19309.906    2.88728    0.403(20)   2471.     0.3427    0.0000
   19329.219    2.89016    0.389(20)   2510.     0.3439    0.0000
   19348.547    2.89305    0.390(20)   2491.     0.3451    0.0000
   19367.906    2.89595    0.371(20)    0.0      0.3463  ?       
   19387.281    2.89885    0.368(20)    0.0      0.3476  ?       
   19406.672    2.90175    0.408(21)    0.0      0.3490  ?       
   19426.094    2.90465    0.403(21)    0.0      0.3504  ?       
   19445.531    2.90756    0.422(21)    0.0      0.3519  ?       
   19464.984    2.91047    0.461(23)    0.0      0.3534  ?       
   19484.469    2.91338    0.501(24)    0.0      0.3550  ?       
   19503.969    2.91630    0.538(25)    0.0      0.3567  ?       
   19523.484    2.91921    0.611(26)    0.0      0.3585  ?       
   19543.016    2.92213    0.674(28)    0.0      0.3603  ?       
   19562.563    2.92506    0.722(29)    0.0      0.3622  ?       
   19582.141    2.92798    0.738(30)    0.0      0.3641  ?       
   19601.734    2.93091    0.717(29)    0.0      0.3662  ?       
   19621.344    2.93385    0.683(29)    0.0      0.3683  ?       
   19640.969    2.93678    0.638(28)    0.0      0.3705  ?       
   19660.609    2.93972    0.631(28)    0.0      0.3728  ?       
   19680.281    2.94266    0.648(28)    0.0      0.3752  ?       
   19699.984    2.94561    0.670(29)    0.0      0.3776  ?       
   19719.703    2.94856    0.873(33)    0.0      0.3802  ?       
   19739.422    2.95150    1.01(4)      0.0      0.383   ?       
   19759.172    2.95446    1.15(4)      0.0      0.386   ?       
   19778.938    2.95741    1.04(4)      0.0      0.388   ?       
   19798.719    2.96037    0.840(33)    0.0      0.3913  ?       
   19818.531    2.96333    0.709(31)    0.0      0.3944  ?       
   19838.359    2.96630    0.542(27)    0.0      0.3975  ?       
   19858.203    2.96927    0.495(26)    0.0      0.4008  ?       
   19878.078    2.97224    0.551(28)    0.0      0.4041  ?       
   19897.969    2.97521    0.578(28)    0.0      0.4076  ?       
   19917.875    2.97819    0.682(31)    0.0      0.4112  ?       
   19937.813    2.98117    0.87(4)      0.0      0.415   ?       
   19957.75     2.98415    1.10(4)      0.0      0.419   ?       
   19977.719    2.98714    1.40(5)      0.0      0.423   ?       
   19997.719    2.99013    1.35(5)      0.0      0.427   ?       
   20017.719    2.99312    1.42(5)      0.0      0.431   ?       
   20037.734    2.99611    1.25(4)      0.0      0.435   ?       
   20057.781    2.99911    1.11(4)      0.0      0.440   ?       
   20077.859    3.00211    0.97(4)      0.0      0.445   ?       
   20097.953    3.00512    0.85(4)      0.0      0.449   ?       
   20118.063    3.00813    0.737(34)    0.0      0.4544  ?       
   20138.188    3.01114    0.666(33)    0.0      0.4595  ?       
   20158.328    3.01415    0.653(33)    0.0      0.4647  ?       
   20178.5      3.01716    0.705(34)    0.0      0.4702  ?       
   20198.688    3.02018    0.88(4)      0.0      0.476   ?       
   20218.891    3.02320    1.14(4)      0.0      0.482   ?       
   20239.125    3.02623    1.56(5)      0.0      0.487   ?       
   20259.375    3.02926    2.20(6)      0.0      0.494   ?       
   20279.641    3.03229    2.71(7)      0.0      0.500   ?       
   20299.938    3.03532    2.83(7)      0.0      0.506   ?       
   20320.25     3.03836    2.76(7)      0.0      0.513   ?       
   20340.578    3.04140    2.38(7)      0.0      0.520   ?       
   20360.922    3.04444    1.99(6)      0.0      0.527   ?       
   20381.297    3.04749    1.69(6)      0.0      0.534   ?       
   20401.688    3.05054    1.40(5)      0.0      0.542   ?       
   20422.094    3.05359    1.17(5)      0.0      0.549   ?       
   20442.531    3.05665    1.03(5)      0.0      0.557   ?       
   20462.984    3.05971    1.05(5)      0.0      0.565   ?       
   20483.453    3.06277    1.03(5)      0.0      0.574   ?       
   20503.938    3.06583    1.12(5)      0.0      0.582   ?       
   20524.453    3.06890    1.64(6)      0.0      0.591   ?       
   20545.0      3.07197    2.31(7)      0.0      0.600   ?       
   20565.563    3.07505    3.37(9)      0.0      0.610   ?       
   20586.141    3.07812    4.30(10)     0.0      0.619   ?       
   20606.734    3.08120    4.37(10)     0.0      0.629   ?       
   20627.344    3.08428    3.81(9)      0.0      0.639   ?       
   20647.984    3.08737    3.01(8)      0.0      0.650   ?       
   20668.641    3.09046    2.19(7)      0.0      0.660   ?       
   20689.313    3.09355    1.63(6)      0.0      0.671   ?       
   20710.016    3.09665    1.16(5)      0.0      0.682   ?       
   20730.734    3.09975    0.87(5)      0.0      0.694   ?       
   20751.469    3.10285    0.76(4)      0.0      0.706   ?       
   20772.234    3.10595    0.58(4)      0.0      0.718   ?       
   20793.016    3.10906    0.54(4)      0.0      0.731   ?       
   20813.828    3.11217    0.425(35)    0.0      0.7433  ?       
   20834.656    3.11529    0.46(4)      0.0      0.756   ?       
   20855.5      3.11840    0.45(4)      0.0      0.770   ?       
   20876.375    3.12153    0.46(4)      0.0      0.784   ?       
   20897.25     3.12465    0.388(34)    0.0      0.7980  ?       
   20918.156    3.12777    0.399(35)    0.0      0.8125  ?       
   20939.094    3.13090    0.40(4)      0.0      0.827   ?       
   20960.031    3.13404    0.38(4)      0.0      0.843   ?       
   20981.0      3.13717    0.323(33)    0.0      0.8584  ?       
   21002.0      3.14031    0.362(35)    0.0      0.8744  ?       
   21023.016    3.14345    0.39(4)      0.0      0.891   ?       
   21044.047    3.14660    0.41(4)      0.0      0.908   ?       
   21065.094    3.14975    0.35(4)      0.0      0.925   ?       
   21086.172    3.15290    0.39(4)      0.0      0.943   ?       
   21107.266    3.15605    0.316(35)    0.0      0.9610  ?       
   21128.375    3.15921    0.305(34)    0.0      0.9796  ?       
   21149.516    3.16237    0.33(4)      0.0      0.999   ?       
   21170.688    3.16554    0.36(4)      0.0      1.018   ?       
   21191.875    3.16871    0.291(35)    0.0      1.0382  ?       
   21213.078    3.17188    0.33(4)      0.0      1.059   ?       
   21234.297    3.17505    0.37(4)      0.0      1.080   ?       
   21255.531    3.17823    0.36(4)      0.0      1.101   ?       
   21276.797    3.18141    0.32(4)      0.0      1.123   ?       
   21298.094    3.18459    0.38(4)      0.0      1.146   ?       
   21319.406    3.18778    0.43(5)      0.0      1.169   ?       
   21340.734    3.19097    0.45(5)      0.0      1.192   ?       
   21362.078    3.19416    0.41(5)      0.0      1.216   ?       
   21383.453    3.19736    0.35(4)      0.0      1.241   ?       
   21404.859    3.20056    0.39(5)      0.0      1.266   ?       
_pd_meas_number_of_points              1676
_pd_proc_number_of_points              1676

loop_
      _pd_refln_index_h
      _pd_refln_index_k
      _pd_refln_index_l
      _pd_refln_phase_id
      _refln_observed_status
      _refln_F_squared_calc
      _refln_F_squared_meas
      _refln_phase_calc
      _pd_refln_i100_meas
_reflns_number_observed                0
_reflns_limit_h_min                    0
_reflns_limit_h_max                    6
_reflns_limit_k_min                    0
_reflns_limit_k_max                    21
_reflns_limit_l_min                    -15
_reflns_limit_l_max                    15
_reflns_d_resolution_high              9999.000
_reflns_d_resolution_low               0.000
;
#--eof--eof--eof--eof--eof--eof--eof--eof--eof--eof--eof--eof--eof--eof--eof--#

