#------------------------------------------------------------------------------
#$Date: 2016-02-18 17:37:37 +0200 (Thu, 18 Feb 2016) $
#$Revision: 176729 $
#$URL: file:///home/coder/svn-repositories/cod/cif/1/51/74/1517474.cif $
#------------------------------------------------------------------------------
#
# This file is available in the Crystallography Open Database (COD),
# http://www.crystallography.net/
#
# All data on this site have been placed in the public domain by the
# contributors.
#
data_1517474
loop_
_publ_author_name
'Queen, Wendy L.'
'Hudson, Matthew R.'
'Bloch, Eric D.'
'Mason, Jarad A.'
'Gonzalez, Miguel I.'
'Lee, Jason S.'
'Gygi, David'
'Howe, Joshua D.'
'Lee, Kyuho'
'Darwish, Tamim A.'
'James, Michael'
'Peterson, Vanessa K.'
'Teat, Simon J.'
'Smit, Berend'
'Neaton, Jeffrey B.'
'Long, Jeffrey R.'
'Brown, Craig M.'
_publ_section_title
;
 Comprehensive study of carbon dioxide adsorption in the metal--organic
 frameworks M2(dobdc) (M = Mg, Mn, Fe, Co, Ni, Cu, Zn)
;
_journal_issue                   12
_journal_name_full               'Chem. Sci.'
_journal_page_first              4569
_journal_paper_doi               10.1039/C4SC02064B
_journal_volume                  5
_journal_year                    2014
_chemical_formula_sum            'C4 H O3 Zn'
_chemical_formula_weight         162.43
_chemical_name_systematic        ' ?'
_space_group_IT_number           148
_symmetry_cell_setting           trigonal
_symmetry_space_group_name_Hall  '-R 3'
_symmetry_space_group_name_H-M   'R -3 :H'
_audit_creation_date             2013-11-26T14:41
_audit_creation_method           'from EXP file using GSAS2CIF'
_audit_update_record
' 2013-11-26T14:41  Initial CIF as created by GSAS2CIF'
_cell_angle_alpha                90.0
_cell_angle_beta                 90.0
_cell_angle_gamma                120.0
_cell_formula_units_Z            18
_cell_length_a                   25.9292(24)
_cell_length_b                   25.9292
_cell_length_c                   6.7962(9)
_cell_measurement_temperature    10
_cell_volume                     3957.1(6)
_computing_structure_refinement  GSAS
_diffrn_ambient_temperature      10
_diffrn_measurement_device_type  BT1
_diffrn_radiation_probe          neutron
_diffrn_radiation_type           neutron
_diffrn_radiation_wavelength     2.0785
_exptl_absorpt_correction_T_max  1.00000
_exptl_absorpt_correction_T_min  1.00000
_exptl_absorpt_process_details
;   GSAS Absorption/surface roughness correction: function number 0
 No correction is applied.
;
_exptl_crystal_colour            yellow
_pd_block_id                     2013-11-26T14:41|BARE_ZN||bt1
_pd_calc_method                  'Rietveld Refinement'
_pd_instr_location               ' ?'
_pd_meas_2theta_range_inc        0.05
_pd_meas_2theta_range_max        166.25
_pd_meas_2theta_range_min        1.5
_pd_meas_number_of_points        3296
_pd_phase_name
'from /data/people/craigy/MgMOF/BT1/1108/MOF74.xtl'
_pd_proc_2theta_range_inc        0.05
_pd_proc_2theta_range_max        166.268
_pd_proc_2theta_range_min        1.518
_pd_proc_info_datetime           2013-11-26T14:41:23
_pd_proc_info_excluded_regions   ' ?'
_pd_proc_ls_background_function
;   GSAS Background function number 1 with 12 terms.
 Shifted Chebyshev function of 1st kind
      1:    357.282     2:   -80.2684     3:    57.2288     4:   -8.42231    
      5:    24.9828     6:   -1.35769     7:    12.2165     8:   -1.31075    
      9:    6.49603    10:  -0.867218    11:    3.90147    12:  -7.136940E-02
;
_pd_proc_ls_peak_cutoff          0.00100
_pd_proc_ls_profile_function
;
 CW Profile function number 3 with  19 terms
 Pseudovoigt profile coefficients as parameterized in
 P. Thompson, D.E. Cox & J.B. Hastings (1987). J. Appl. Cryst.,20,79-83.
 Asymmetry correction of L.W. Finger, D.E. Cox & A. P. Jephcoat (1994).
 J. Appl. Cryst.,27,892-900.
 Peak tails are ignored  where the intensity is below 0.0010 times the peak
   Aniso. broadening axis   0.0   0.0   1.0
;
_pd_proc_ls_prof_R_factor        0.0402
_pd_proc_ls_prof_wR_expected     0.0499
_pd_proc_ls_prof_wR_factor       0.0484
_pd_proc_number_of_points        3296
_pd_spec_mounting                ' ?'
_refine_ls_goodness_of_fit_all   0.98
_refine_ls_hydrogen_treatment    refall
_refine_ls_matrix_type           full
_refine_ls_number_parameters     47
_refine_ls_number_restraints     9
_refine_ls_R_Fsqd_factor         0.04520
_refine_ls_shift/su_max          0.05
_refine_ls_shift/su_mean         0.02
_reflns_d_resolution_high        1.066
_reflns_d_resolution_low         12.965
_reflns_limit_h_max              24
_reflns_limit_h_min              0
_reflns_limit_k_max              12
_reflns_limit_k_min              -11
_reflns_limit_l_max              6
_reflns_limit_l_min              -6
_reflns_number_total             767
_cod_data_source_file            c4sc02064b2.cif
_cod_data_source_block           BARE_ZN_publ
_cod_depositor_comments
;
The following automatic conversions were performed:

'_geom_bond_publ_flag' value 'N' changed to 'n' according to
/usr/data/users/saulius/crontab/automatic-downloads/rss-feeds/RSC/lib/dictionaries/cif_core.dic
dictionary named 'cif_core.dic' version 2.4.2 from 2011-04-26 (28
times).

'_geom_angle_publ_flag' value 'N' changed to 'n' according
to
/usr/data/users/saulius/crontab/automatic-downloads/rss-feeds/RSC/lib/dictionaries/cif_core.dic
dictionary named 'cif_core.dic' version 2.4.2 from 2011-04-26 (25
times).

Automatic conversion script
Id: cif_fix_values 2281 2013-09-26 08:29:07Z andrius 

 Adding full bibliography for 1517465--1517482.cif.
;
_cod_original_sg_symbol_H-M      'R -3'
_cod_database_code               1517474
#BEGIN Tags that were not found in dictionaries:
_gsas_exptl_extinct_corr_t_min   1.00000
_gsas_exptl_extinct_corr_t_max   1.00000
#END Tags that were not found in dictionaries
loop_
_space_group_symop_operation_xyz
'x, y, z'
'-y, x-y, z'
'-x+y, -x, z'
'x+2/3, y+1/3, z+1/3'
'-y+2/3, x-y+1/3, z+1/3'
'-x+y+2/3, -x+1/3, z+1/3'
'x+1/3, y+2/3, z+2/3'
'-y+1/3, x-y+2/3, z+2/3'
'-x+y+1/3, -x+2/3, z+2/3'
'-x, -y, -z'
'y, -x+y, -z'
'x-y, x, -z'
'-x+2/3, -y+1/3, -z+1/3'
'y+2/3, -x+y+1/3, -z+1/3'
'x-y+2/3, x+1/3, -z+1/3'
'-x+1/3, -y+2/3, -z+2/3'
'y+1/3, -x+y+2/3, -z+2/3'
'x-y+1/3, x+2/3, -z+2/3'
loop_
_atom_site_type_symbol
_atom_site_label
_atom_site_fract_x
_atom_site_fract_y
_atom_site_fract_z
_atom_site_occupancy
_atom_site_thermal_displace_type
_atom_site_U_iso_or_equiv
_atom_site_symmetry_multiplicity
Zn Zn1 0.3833(9) 0.3534(11) 0.1394(27) 1.0 Uiso 0.021(6) 18
O O1 0.3305(9) 0.2968(8) 0.3816(34) 1.0 Uiso 0.0144(32) 18
O O2 0.2999(10) 0.2273(10) 0.6027(28) 1.0 Uiso 0.0144(32) 18
O O3 0.3541(9) 0.2723(10) 0.0013(33) 1.0 Uiso 0.0144(32) 18
C C1 0.3166(9) 0.2450(9) 0.4287(29) 1.0 Uiso 0.0146(21) 18
C C2 0.3267(9) 0.2058(9) 0.2859(27) 1.0 Uiso 0.0146(21) 18
C C3 0.3441(9) 0.2235(10) 0.0940(26) 1.0 Uiso 0.0146(21) 18
C C4 0.3521(9) 0.1845(10) -0.0294(29) 1.0 Uiso 0.0146(21) 18
H H 0.3651(20) 0.1942(19) -0.158(7) 1.0 Uiso 0.052(15) 18
loop_
_atom_type_symbol
_atom_type_number_in_cell
_atom_type_scat_length_neutron
_atom_type_scat_source
Zn 18.0 0.5680 International_Tables_Vol_C
O 54.0 0.5803 International_Tables_Vol_C
C 72.0 0.6646 International_Tables_Vol_C
H 18.0 -0.3739 International_Tables_Vol_C
loop_
_geom_angle_atom_site_label_1
_geom_angle_atom_site_label_2
_geom_angle_atom_site_label_3
_geom_angle
_geom_angle_site_symmetry_1
_geom_angle_site_symmetry_3
_geom_angle_publ_flag
O1 Zn1 O1 81.0(8) 1_555 103_554 n
O1 Zn1 O2 173.4(17) 1_555 202_554 n
O1 Zn1 O3 82.6(11) 1_555 1_555 n
O1 Zn1 O3 80.0(11) 1_555 202_555 n
O1 Zn1 O2 105.6(14) 103_554 202_554 n
O1 Zn1 O3 80.5(11) 103_554 1_555 n
O1 Zn1 O3 94.9(12) 103_554 202_555 n
O2 Zn1 O3 98.8(13) 202_554 1_555 n
O2 Zn1 O3 98.7(16) 202_554 202_555 n
O3 Zn1 O3 162.5(16) 1_555 202_555 n
Zn1 O1 Zn1 89.4(8) 1_555 202_555 n
Zn1 O1 C1 131.9(20) 1_555 1_555 n
Zn1 O1 C1 138.6(19) 202_555 1_555 n
Zn1 O2 C1 120.4(19) 103_555 1_555 n
Zn1 O3 Zn1 95.1(14) 1_555 103_554 n
Zn1 O3 C3 123.7(19) 1_555 1_555 n
Zn1 O3 C3 129.0(19) 103_554 1_555 n
O1 C1 O2 119.6(24) 1_555 1_555 n
O1 C1 C2 120.1(23) 1_555 1_555 n
O2 C1 C2 119.8(20) 1_555 1_555 n
C1 C2 C3 121.2(24) 1_555 1_555 n
O3 C3 C2 130.1(25) 1_555 1_555 n
O3 C3 C4 112.1(19) 1_555 1_555 n
C2 C3 C4 117.8(21) 1_555 1_555 n
C3 C4 H 122.2(32) 1_555 1_555 n
loop_
_geom_bond_atom_site_label_1
_geom_bond_atom_site_label_2
_geom_bond_distance
_geom_bond_site_symmetry_2
_geom_bond_publ_flag
Zn1 Zn1 2.993(24) 103_554 n
Zn1 Zn1 2.993(24) 202_555 n
Zn1 O1 2.174(27) 1_555 n
Zn1 O1 2.080(26) 103_554 n
Zn1 O2 1.975(29) 202_554 n
Zn1 O3 2.068(31) 1_555 n
Zn1 O3 1.988(33) 202_555 n
O1 Zn1 2.174(27) 1_555 n
O1 Zn1 2.080(26) 202_555 n
O1 O2 2.169(30) 1_555 n
O1 C1 1.246(27) 1_555 n
O2 Zn1 1.975(29) 103_555 n
O2 O1 2.169(30) 1_555 n
O2 C1 1.264(23) 1_555 n
O3 Zn1 2.068(31) 1_555 n
O3 Zn1 1.988(33) 103_554 n
O3 C3 1.319(29) 1_555 n
C1 O1 1.246(27) 1_555 n
C1 O2 1.264(23) 1_555 n
C1 C2 1.519(30) 1_555 n
C2 C1 1.519(30) 1_555 n
C2 C3 1.381(24) 1_555 n
C3 O3 1.319(29) 1_555 n
C3 C2 1.381(24) 1_555 n
C3 C4 1.406(26) 1_555 n
C4 C3 1.406(26) 1_555 n
C4 H 0.93(5) 1_555 n
H C4 0.93(5) 1_555 n
loop_
_pd_meas_intensity_total
_pd_proc_ls_weight
_pd_proc_intensity_bkg_calc
_pd_calc_intensity_total
5540(160) 0.0 833. .
4570(140) 0.0 829. .
4140(130) 0.0 825. .
3480(120) 0.0 821. .
3230(120) 0.0 817. .
2820(110) 0.0 813. .
2530(110) 0.0 809. .
2470(100) 0.0 805. .
2049(94) 0.0 801. .
1944(92) 0.0 797. .
1838(89) 0.0 794. .
1737(87) 0.0 790. .
1451(79) 0.0 786. .
1433(78) 0.0 782. .
1451(79) 0.0 779. .
1328(75) 0.0 775. .
1227(72) 0.0 772. .
1323(75) 0.0 768. .
1068(67) 0.0 765. .
1319(75) 0.0 761. .
1161(70) 0.0 758. .
1029(66) 0.0 754. .
1148(70) 0.0 751. .
1077(68) 0.0 748. .
1213(72) 0.0 744. .
1068(67) 0.0 741. .
1196(71) 0.0 738. .
1205(72) 0.0 735. .
1148(70) 0.0 731. .
1077(68) 0.0 728. .
1011(66) 0.0 725. .
928(63) 0.0 722. .
1024(66) 0.0 719. .
928(63) 0.0 716. .
941(63) 0.0 713. .
800(58) 0.0 710. .
994(65) 0.0 707. .
932(63) 0.0 704. .
818(59) 0.0 701. .
897(62) 0.0 698. .
804(58) 0.0 695. .
998(65) 0.0 693. .
954(64) 0.0 690. .
848(60) 0.0 687. .
879(61) 0.0 684. .
840(60) 0.0 681. .
826(59) 0.0 679. .
826(59) 0.0 676. .
848(60) 0.0 673. .
703(54) 0.0 671. .
804(58) 0.0 668. .
690(54) 0.0 666. .
760(56) 0.0 663. .
787(58) 0.0 661. .
809(58) 0.0 658. .
796(58) 0.0 656. .
791(58) 0.0 653. .
743(56) 0.0 651. .
857(60) 0.0 648. .
782(57) 0.0 646. .
791(58) 0.0 643. .
747(56) 0.0 641. .
690(54) 0.0 639. .
708(54) 0.0 636. .
699(54) 0.0 634. .
690(54) 0.0 632. .
721(55) 0.0 630. .
712(55) 0.0 627. .
743(56) 0.0 625. .
730(55) 0.0 623. .
633(51) 0.0 621. .
646(52) 0.0 619. .
703(54) 0.0 617. .
646(52) 0.0 615. .
567(48) 0.0 613. .
580(49) 0.0 611. .
567(48) 0.0 608. .
563(48) 0.0 606. .
686(54) 0.0 604. .
672(53) 0.0 602. .
545(47) 0.0 601. .
672(53) 0.0 599. .
708(54) 0.0 597. .
602(50) 0.0 595. .
536(47) 0.0 593. .
672(53) 0.0 591. .
624(51) 0.0 589. .
607(50) 0.0 587. .
646(52) 0.0 586. .
580(49) 0.0 584. .
628(51) 0.0 582. .
501(45) 0.0 580. .
686(54) 0.0 579. .
615(51) 0.0 577. .
541(47) 0.0 575. .
523(46) 0.0 573. .
585(49) 0.0 572. .
536(47) 0.0 570. .
567(48) 0.0 568. .
571(49) 0.0 567. .
740(39) 0.0 565. .
668(37) 0.0 564. .
704(38) 0.0 562. .
650(36) 0.0 560. .
640(36) 0.0 559. .
652(36) 0.0 557. .
636(36) 0.0 556. .
576(34) 0.000865 554.4 562.0
564(33) 0.000918 552.9 560.9
580(34) 0.000865 551.5 559.8
538(33) 0.000918 550.0 558.8
566(33) 0.000918 548.6 557.9
525(32) 0.000977 547.1 556.9
519(32) 0.000977 545.7 556.1
579(34) 0.000865 544.3 555.3
533(32) 0.000977 542.9 554.5
525(32) 0.000977 541.6 553.9
533(32) 0.000977 540.2 553.3
539(33) 0.000918 538.9 552.8
541(33) 0.000918 537.6 552.4
532(32) 0.000977 536.2 552.1
478(31) 0.001041 534.9 552.0
562(33) 0.000918 533.7 552.0
505(31) 0.001041 532.4 552.1
584(34) 0.000865 531.1 552.5
608(35) 0.000816 529.9 553.1
644(36) 0.000772 529. 554.
590(34) 0.000865 527.4 555.1
576(34) 0.000865 526.2 556.6
584(34) 0.000865 525.0 558.7
545(33) 0.000918 523.8 561.3
619(35) 0.000816 522.6 564.7
597(34) 0.000865 521.5 569.3
631(35) 0.000816 520.3 575.9
657(36) 0.000772 519. 587.
666(36) 0.000772 518. 606.
751(39) 0.000657 517. 641.
827(41) 0.000595 516. 702.
947(44) 0.000517 515. 796.
1054(46) 0.000473 514. 930.
1118(48) 0.000434 513. 1102.
1249(51) 0.000384 512. 1311.
1540(56) 0.0003189 510. 1557.
1781(61) 0.0002687 509. 1843.
2114(66) 0.0002296 508. 2180.
2393(70) 0.0002041 507. 2581.
2958(78) 0.0001644 506. 3071.
3646(87) 0.0001321 505. 3687.
4598(98) 0.0001041 504. 4476.
5670(110) 0.0000842 503. 5474.
6830(120) 0.0000694 502. 6632.
8050(130) 0.0000592 501. 7717.
8440(130) 0.0000565 501. 8290.
7960(130) 0.0000601 500. 7890.
6550(120) 0.0000731 499. 6437.
4577(98) 0.0001041 498. 4497.
2904(78) 0.0001644 497. 2792.
1720(59) 0.0002873 496. 1662.
1037(46) 0.000473 495. 1065.
678(37) 0.000730 494. 801.
595(34) 0.000865 493.3 691.7
526(32) 0.000977 492.4 641.2
497(31) 0.001041 491.6 611.5
501(31) 0.001041 490.7 590.6
485(31) 0.001041 489.9 574.5
526(32) 0.000977 489.1 561.8
518(32) 0.000977 488.3 551.4
552(33) 0.000918 487.4 542.8
471(30) 0.001111 486.6 535.6
516(32) 0.000977 485.8 529.4
508(32) 0.000977 485.1 524.1
545(33) 0.000918 484.3 519.5
491(31) 0.001041 483.5 515.4
492(31) 0.001041 482.7 511.8
475(30) 0.001111 482.0 508.6
495(31) 0.001041 481.2 505.7
456(30) 0.001111 480.5 503.0
521(32) 0.000977 479.8 500.6
523(32) 0.000977 479.1 498.3
497(31) 0.001041 478.3 496.3
525(32) 0.000977 477.6 494.4
479(31) 0.001041 476.9 492.6
488(31) 0.001041 476.2 490.9
552(33) 0.000918 475.6 489.3
515(32) 0.000977 474.9 487.8
489(31) 0.001041 474.2 486.4
472(30) 0.001111 473.5 485.0
451(30) 0.001111 472.9 483.8
495(31) 0.001041 472.2 482.5
501(31) 0.001041 471.6 481.4
501(31) 0.001041 470.9 480.2
503(31) 0.001041 470.3 479.1
511(32) 0.000977 469.7 478.1
449(30) 0.001111 469.1 477.1
460(30) 0.001111 468.5 476.1
456(30) 0.001111 467.8 475.2
454(41) 0.000595 467. 474.
499(43) 0.000541 467. 473.
501(43) 0.000541 466. 472.
500(43) 0.000541 465. 472.
498(31) 0.001041 464.9 470.8
481(31) 0.001041 464.3 470.0
448(30) 0.001111 463.8 469.2
467(30) 0.001111 463.2 468.5
461(30) 0.001111 462.7 467.7
480(31) 0.001041 462.1 467.0
455(30) 0.001111 461.6 466.3
492(31) 0.001041 461.0 465.6
470(30) 0.001111 460.5 464.9
466(30) 0.001111 460.0 464.2
479(31) 0.001041 459.5 463.6
426(29) 0.001189 459.0 462.9
462(30) 0.001111 458.4 462.3
462(30) 0.001111 457.9 461.7
473(30) 0.001111 457.4 461.0
454(30) 0.001111 456.9 460.4
447(29) 0.001189 456.5 459.8
456(30) 0.001111 456.0 459.3
469(30) 0.001111 455.5 458.7
483(31) 0.001041 455.0 458.1
443(29) 0.001189 454.6 457.6
473(30) 0.001111 454.1 457.0
483(31) 0.001041 453.6 456.5
464(30) 0.001111 453.2 455.9
470(30) 0.001111 452.7 455.4
463(30) 0.001111 452.3 454.9
525(32) 0.000977 451.8 454.4
456(30) 0.001111 451.4 455.0
471(30) 0.001111 451.0 454.6
481(31) 0.001041 450.5 454.1
486(31) 0.001041 450.1 453.7
486(31) 0.001041 449.7 453.3
459(30) 0.001111 449.3 452.8
465(30) 0.001111 448.9 452.4
445(29) 0.001189 448.5 452.0
499(31) 0.001041 448.1 451.6
459(30) 0.001111 447.7 451.2
449(30) 0.001111 447.3 450.9
403(28) 0.001276 446.9 450.5
450(30) 0.001111 446.5 450.1
449(30) 0.001111 446.1 449.8
467(30) 0.001111 445.7 449.4
473(30) 0.001111 445.3 449.1
478(31) 0.001041 445.0 448.8
468(30) 0.001111 444.6 448.5
473(30) 0.001111 444.2 448.2
502(31) 0.001041 443.9 447.9
462(30) 0.001111 443.5 447.6
414(28) 0.001276 443.1 447.4
426(29) 0.001189 442.8 447.2
454(30) 0.001111 442.4 446.9
450(30) 0.001111 442.1 446.7
429(29) 0.001189 441.8 446.5
458(30) 0.001111 441.4 446.4
446(29) 0.001189 441.1 446.2
448(29) 0.001189 440.7 446.1
410(28) 0.001276 440.4 446.0
459(30) 0.001111 440.1 446.0
457(30) 0.001111 439.8 446.0
421(29) 0.001189 439.4 446.0
441(29) 0.001189 439.1 446.0
424(29) 0.001189 438.8 446.1
444(29) 0.001189 438.5 446.3
453(30) 0.001111 438.2 446.6
421(29) 0.001189 437.9 446.9
456(30) 0.001111 437.6 447.3
478(31) 0.001041 437.3 447.8
442(29) 0.001189 437.0 448.5
501(31) 0.001041 436.7 449.3
478(31) 0.001041 436.4 450.4
449(30) 0.001111 436.1 451.6
449(30) 0.001111 435.8 453.2
448(30) 0.001111 435.5 455.3
467(30) 0.001111 435.2 457.9
478(31) 0.001041 434.9 461.3
480(31) 0.001041 434.7 466.0
452(30) 0.001111 434.4 473.3
460(30) 0.001111 434.1 485.6
552(33) 0.000918 433.8 505.9
579(34) 0.000865 433.6 540.2
618(35) 0.000816 433.3 595.7
763(39) 0.000657 433. 680.
861(42) 0.000567 433. 801.
1049(46) 0.000473 433. 969.
1241(50) 0.000400 432. 1187.
1413(54) 0.0003429 432. 1448.
1675(59) 0.0002873 432. 1712.
1852(62) 0.0002601 431. 1904.
1789(61) 0.0002687 431. 1930.
1573(57) 0.0003078 431. 1740.
1239(50) 0.000400 431. 1404.
971(44) 0.000517 430. 1062.
694(37) 0.000730 430. 800.
626(35) 0.000816 430.0 636.5
524(32) 0.000977 429.8 549.3
461(30) 0.001111 429.5 506.8
477(44) 0.000517 429. 486.
466(30) 0.001111 429.1 473.7
409(28) 0.001276 428.8 465.8
420(28) 0.001276 428.6 459.9
444(29) 0.001189 428.4 455.4
430(29) 0.001189 428.1 451.8
414(28) 0.001276 427.9 448.8
446(29) 0.001189 427.7 446.4
440(29) 0.001189 427.5 444.3
434(29) 0.001189 427.2 442.6
446(29) 0.001189 427.0 441.2
465(30) 0.001111 426.8 439.9
423(28) 0.001276 426.6 438.8
460(30) 0.001111 426.4 437.9
451(29) 0.001189 426.2 437.1
479(30) 0.001111 426.0 436.5
498(31) 0.001041 425.7 435.9
436(29) 0.001189 425.5 435.4
460(30) 0.001111 425.3 435.0
463(30) 0.001111 425.1 434.7
421(28) 0.001276 424.9 434.5
441(29) 0.001189 424.7 434.4
422(28) 0.001276 424.5 434.4
421(28) 0.001276 424.3 434.5
473(30) 0.001111 424.1 435.3
414(28) 0.001276 423.9 435.7
408(28) 0.001276 423.7 436.3
422(28) 0.001276 423.5 437.2
423(28) 0.001276 423.3 438.4
457(30) 0.001111 423.1 440.1
425(29) 0.001189 422.9 442.6
455(30) 0.001111 422.7 446.6
423(28) 0.001276 422.5 453.4
526(32) 0.000977 422.3 465.2
535(32) 0.000977 422.2 485.0
590(34) 0.000865 422.0 517.2
558(33) 0.000918 421.8 566.2
624(35) 0.000816 421.6 636.0
778(39) 0.000657 421. 728.
871(41) 0.000595 421. 833.
928(43) 0.000541 421. 933.
959(43) 0.000541 421. 995.
905(42) 0.000567 421. 986.
856(41) 0.000595 420. 899.
702(37) 0.000730 420. 769.
604(34) 0.000865 420.1 646.5
473(30) 0.001111 419.9 555.7
461(30) 0.001111 419.8 499.5
431(29) 0.001189 419.6 469.0
442(29) 0.001189 419.4 453.4
415(28) 0.001276 419.2 445.3
429(29) 0.001189 419.1 440.4
459(30) 0.001111 418.9 437.1
426(29) 0.001189 418.7 434.6
426(29) 0.001189 418.5 432.7
389(27) 0.001372 418.4 431.2
413(28) 0.001276 418.2 430.1
441(29) 0.001189 418.0 429.1
454(30) 0.001111 417.9 428.3
471(30) 0.001111 417.7 427.7
472(30) 0.001111 417.5 427.2
435(29) 0.001189 417.4 426.8
411(28) 0.001276 417.2 426.5
414(28) 0.001276 417.0 426.3
444(29) 0.001189 416.9 426.2
448(29) 0.001189 416.7 426.2
408(28) 0.001276 416.5 426.4
425(29) 0.001189 416.4 426.7
470(30) 0.001111 416.2 427.1
403(28) 0.001276 416.0 427.8
433(29) 0.001189 415.9 428.6
462(30) 0.001111 415.7 429.8
479(30) 0.001111 415.5 431.4
428(29) 0.001189 415.4 433.7
460(30) 0.001111 415.2 437.1
421(28) 0.001276 415.1 442.7
419(28) 0.001276 414.9 452.2
433(29) 0.001189 414.7 468.5
482(30) 0.001111 414.6 495.9
585(34) 0.000865 414.4 539.6
590(34) 0.000865 414.3 603.7
663(36) 0.000772 414. 689.
746(38) 0.000693 414. 789.
872(41) 0.000595 414. 883.
926(43) 0.000541 414. 940.
876(41) 0.000595 413. 929.
737(38) 0.000693 413. 847.
694(37) 0.000730 413. 730.
657(36) 0.000772 413. 620.
630(35) 0.000816 412.9 539.3
596(34) 0.000865 412.7 488.7
528(32) 0.000977 412.6 460.5
493(31) 0.001041 412.4 445.7
478(30) 0.001111 412.2 437.7
467(30) 0.001111 412.1 433.4
467(30) 0.001111 411.9 430.1
450(29) 0.001189 411.8 427.6
476(30) 0.001111 411.6 425.6
463(30) 0.001111 411.5 424.1
432(29) 0.001189 411.3 422.8
466(29) 0.001189 411.2 421.8
489(29) 0.001189 411.0 421.0
497(30) 0.001111 410.9 420.3
451(28) 0.001276 410.7 419.8
422(27) 0.001372 410.6 419.3
400(27) 0.001372 410.4 419.0
434(28) 0.001276 410.3 418.8
445(28) 0.001276 410.1 418.7
437(28) 0.001276 410.0 418.7
446(28) 0.001276 409.8 418.8
458(28) 0.001276 409.7 419.1
440(28) 0.001276 409.5 419.5
479(29) 0.001189 409.4 420.1
524(30) 0.001111 409.2 421.1
448(28) 0.001276 409.1 422.6
478(29) 0.001189 408.9 424.9
461(29) 0.001189 408.8 428.9
459(29) 0.001189 408.6 435.8
429(28) 0.001276 408.5 447.8
414(27) 0.001372 408.3 467.5
431(28) 0.001276 408.2 497.4
484(29) 0.001189 408.0 538.1
553(31) 0.001041 407.9 586.6
605(33) 0.000918 407.7 633.3
620(33) 0.000918 407.6 663.5
625(33) 0.000918 407.4 661.7
613(33) 0.000918 407.3 625.0
537(31) 0.001041 407.2 570.1
537(31) 0.001041 407.0 517.2
448(28) 0.001276 406.9 477.1
470(29) 0.001189 406.7 451.1
420(27) 0.001372 406.6 436.2
431(28) 0.001276 406.4 428.1
397(26) 0.001479 406.3 423.7
425(27) 0.001372 406.1 421.1
441(28) 0.001276 406.0 419.4
410(27) 0.001372 405.8 418.2
432(28) 0.001276 405.7 417.3
380(26) 0.001479 405.5 416.7
387(26) 0.001479 405.4 416.3
456(28) 0.001276 405.3 416.1
426(27) 0.001372 405.1 416.0
422(27) 0.001372 405.0 416.1
407(27) 0.001372 404.8 416.3
411(27) 0.001372 404.7 416.7
433(28) 0.001276 404.5 417.3
364(25) 0.001600 404.4 418.1
375(26) 0.001479 404.2 419.2
428(27) 0.001372 404.1 420.5
452(28) 0.001276 403.9 422.3
470(29) 0.001189 403.8 424.7
406(27) 0.001372 403.7 428.2
415(27) 0.001372 403.5 432.7
456(28) 0.001276 403.4 439.5
481(29) 0.001189 403.2 450.5
480(29) 0.001189 403.1 469.1
513(30) 0.001111 402.9 500.7
576(32) 0.000977 402.8 552.5
631(34) 0.000865 402.6 630.7
687(35) 0.000816 402.5 735.7
784(37) 0.000730 402. 858.
984(42) 0.000567 402. 974.
1065(44) 0.000517 402. 1044.
1075(44) 0.000517 402. 1031.
873(40) 0.000625 402. 934.
742(36) 0.000772 402. 797.
622(33) 0.000918 401.5 668.5
540(31) 0.001041 401.3 571.2
456(28) 0.001276 401.2 507.8
430(28) 0.001276 401.0 470.7
393(26) 0.001479 400.9 450.1
409(27) 0.001372 400.8 438.5
387(26) 0.001479 400.6 431.4
368(25) 0.001600 400.5 426.6
413(27) 0.001372 400.3 423.1
397(26) 0.001479 400.2 420.4
341(24) 0.001736 400.0 418.2
370(25) 0.001600 399.9 416.6
410(27) 0.001372 399.7 415.3
405(27) 0.001372 399.6 414.3
429(28) 0.001276 399.5 413.6
436(28) 0.001276 399.3 413.1
433(28) 0.001276 399.2 413.0
406(27) 0.001372 399.0 413.1
438(28) 0.001276 398.9 413.4
456(28) 0.001276 398.7 414.1
379(26) 0.001479 398.6 415.5
370(26) 0.001479 398.4 417.8
398(26) 0.001479 398.3 421.9
402(27) 0.001372 398.2 429.2
431(28) 0.001276 398.0 441.6
410(27) 0.001372 397.9 461.5
455(28) 0.001276 397.7 490.4
490(29) 0.001189 397.6 527.0
554(31) 0.001041 397.4 566.3
597(33) 0.000918 397.3 598.2
590(32) 0.000977 397.1 609.1
620(33) 0.000918 397.0 591.6
554(31) 0.001041 396.9 553.0
480(29) 0.001189 396.7 509.6
487(29) 0.001189 396.6 473.1
412(27) 0.001372 396.4 447.2
402(27) 0.001372 396.3 430.9
414(27) 0.001372 396.1 421.5
457(28) 0.001276 396.0 416.3
464(29) 0.001189 395.8 413.3
405(27) 0.001372 395.7 411.5
401(26) 0.001479 395.6 410.3
426(27) 0.001372 395.4 409.5
393(26) 0.001479 395.3 409.1
381(26) 0.001479 395.1 409.0
405(27) 0.001372 395.0 409.1
446(28) 0.001276 394.8 409.4
419(27) 0.001372 394.7 410.0
459(28) 0.001276 394.5 411.0
414(27) 0.001372 394.4 412.3
379(26) 0.001479 394.3 414.1
402(26) 0.001479 394.1 416.6
405(27) 0.001372 394.0 420.0
408(27) 0.001372 393.8 425.1
444(28) 0.001276 393.7 433.2
453(28) 0.001276 393.5 446.8
475(29) 0.001189 393.4 469.6
540(31) 0.001041 393.2 507.0
526(30) 0.001111 393.1 564.0
605(33) 0.000918 393.0 642.0
688(35) 0.000816 392.8 734.0
749(36) 0.000772 393. 822.
840(39) 0.000657 393. 883.
909(40) 0.000625 392. 888.
836(39) 0.000657 392. 826.
792(37) 0.000730 392. 727.
693(35) 0.000816 392.0 627.8
565(32) 0.000977 391.8 548.4
479(29) 0.001189 391.7 493.4
445(28) 0.001276 391.5 459.1
462(28) 0.001276 391.4 439.0
469(29) 0.001189 391.2 427.4
431(27) 0.001372 391.1 420.4
409(27) 0.001372 391.0 415.7
420(27) 0.001372 390.8 412.3
416(27) 0.001372 390.7 409.8
399(26) 0.001479 390.5 407.9
442(28) 0.001276 390.4 406.4
434(28) 0.001276 390.2 405.3
448(28) 0.001276 390.1 404.5
407(27) 0.001372 390.0 404.1
416(27) 0.001372 389.8 403.9
407(27) 0.001372 389.7 404.2
374(26) 0.001479 389.5 404.9
395(26) 0.001479 389.4 406.4
382(26) 0.001479 389.2 409.1
405(27) 0.001372 389.1 414.2
428(27) 0.001372 389.0 422.9
422(27) 0.001372 388.8 437.2
425(27) 0.001372 388.7 458.5
490(29) 0.001189 388.5 486.8
483(29) 0.001189 388.4 518.6
511(30) 0.001111 388.2 547.2
527(30) 0.001111 388.1 562.5
512(30) 0.001111 388.0 555.7
527(30) 0.001111 387.8 528.2
516(30) 0.001111 387.7 493.0
429(27) 0.001372 387.5 461.0
446(28) 0.001276 387.4 436.8
460(28) 0.001276 387.3 420.4
408(27) 0.001372 387.1 410.3
389(26) 0.001479 387.0 404.3
413(27) 0.001372 386.8 400.7
427(27) 0.001372 386.7 398.3
439(28) 0.001276 386.5 396.6
418(27) 0.001372 386.4 395.3
386(26) 0.001479 386.3 394.3
414(27) 0.001372 386.1 393.4
431(27) 0.001372 386.0 392.6
441(28) 0.001276 385.8 392.0
473(29) 0.001189 385.7 391.4
440(28) 0.001276 385.6 390.9
437(28) 0.001276 385.4 390.5
434(28) 0.001276 385.3 390.1
383(26) 0.001479 385.1 389.8
428(27) 0.001372 385.0 389.4
371(25) 0.001600 384.9 389.1
362(25) 0.001600 384.7 389.1
345(24) 0.001736 384.6 388.8
398(26) 0.001479 384.4 388.6
383(26) 0.001479 384.3 388.4
387(26) 0.001479 384.2 388.2
428(27) 0.001372 384.0 388.0
426(27) 0.001372 383.9 387.8
395(26) 0.001479 383.8 387.6
419(27) 0.001372 383.6 387.5
391(26) 0.001479 383.5 387.4
343(24) 0.001736 383.3 387.2
349(25) 0.001600 383.2 387.1
360(25) 0.001600 383.1 387.0
394(26) 0.001479 382.9 386.9
389(26) 0.001479 382.8 386.9
396(26) 0.001479 382.6 386.8
418(27) 0.001372 382.5 386.8
394(25) 0.001600 382.4 386.7
408(26) 0.001479 382.2 386.7
394(25) 0.001600 382.1 386.8
369(25) 0.001600 382.0 386.8
373(25) 0.001600 381.8 386.9
364(24) 0.001736 381.7 387.0
390(25) 0.001600 381.6 387.2
379(25) 0.001600 381.4 387.4
383(25) 0.001600 381.3 387.8
424(26) 0.001479 381.1 388.3
407(26) 0.001479 381.0 389.2
363(24) 0.001736 380.9 390.6
413(26) 0.001479 380.7 392.8
390(25) 0.001600 380.6 396.1
399(26) 0.001479 380.5 400.6
387(25) 0.001600 380.3 406.0
383(25) 0.001600 380.2 411.2
377(25) 0.001600 380.1 414.8
398(26) 0.001479 379.9 415.3
383(25) 0.001600 379.8 412.3
377(25) 0.001600 379.7 407.4
412(26) 0.001479 379.5 402.5
381(25) 0.001600 379.4 398.7
381(25) 0.001600 379.3 396.2
372(25) 0.001600 379.1 395.0
382(25) 0.001600 379.0 394.6
385(25) 0.001600 378.9 395.0
373(25) 0.001600 378.7 395.9
421(26) 0.001479 378.6 397.2
403(26) 0.001479 378.5 398.9
384(25) 0.001600 378.3 401.1
403(26) 0.001479 378.2 403.9
440(27) 0.001372 378.1 407.5
446(27) 0.001372 377.9 412.2
399(26) 0.001479 377.8 418.5
397(25) 0.001600 377.7 427.6
450(27) 0.001372 377.5 441.4
500(29) 0.001189 377.4 463.9
521(29) 0.001189 377.3 500.9
559(30) 0.001111 377.2 559.6
597(31) 0.001041 377.0 646.1
683(34) 0.000865 376.9 760.7
797(36) 0.000772 377. 892.
918(39) 0.000657 377. 1006.
1057(42) 0.000567 377. 1051.
1065(42) 0.000567 376. 998.
965(40) 0.000625 376. 881.
797(36) 0.000772 376. 750.
663(33) 0.000918 376.0 637.4
551(30) 0.001111 375.9 553.6
471(28) 0.001276 375.7 497.2
410(26) 0.001479 375.6 462.0
408(26) 0.001479 375.5 440.7
388(25) 0.001600 375.4 427.6
387(25) 0.001600 375.2 419.3
414(26) 0.001479 375.1 413.7
417(26) 0.001479 375.0 409.8
419(26) 0.001479 374.8 407.1
426(26) 0.001479 374.7 405.4
397(25) 0.001600 374.6 404.7
379(25) 0.001600 374.5 405.1
369(25) 0.001600 374.3 407.0
361(24) 0.001736 374.2 411.2
384(25) 0.001600 374.1 419.3
385(25) 0.001600 374.0 433.1
409(26) 0.001479 373.8 455.0
425(26) 0.001479 373.7 486.2
477(28) 0.001276 373.6 525.7
522(29) 0.001189 373.5 567.3
577(31) 0.001041 373.4 597.2
598(31) 0.001041 373.2 598.9
623(32) 0.000977 373.1 570.8
587(31) 0.001041 373.0 528.6
521(29) 0.001189 372.9 487.1
507(29) 0.001189 372.7 453.2
444(27) 0.001372 372.6 428.7
423(26) 0.001479 372.5 412.4
439(27) 0.001372 372.4 402.1
406(26) 0.001479 372.3 395.6
432(27) 0.001372 372.1 391.4
441(27) 0.001372 372.0 388.5
384(25) 0.001600 371.9 386.3
439(27) 0.001372 371.8 384.6
419(26) 0.001479 371.7 383.2
416(26) 0.001479 371.5 382.0
407(26) 0.001479 371.4 381.0
405(26) 0.001479 371.3 380.2
379(25) 0.001600 371.2 379.5
387(25) 0.001600 371.1 378.9
375(25) 0.001600 370.9 378.3
359(24) 0.001736 370.8 377.9
397(25) 0.001600 370.7 377.4
381(25) 0.001600 370.6 377.1
383(25) 0.001600 370.5 376.8
362(24) 0.001736 370.3 376.6
369(24) 0.001736 370.2 376.5
394(25) 0.001600 370.1 376.3
382(25) 0.001600 370.0 376.2
352(24) 0.001736 369.9 376.1
393(25) 0.001600 369.8 376.1
396(20) 0.002500 369.7 376.1
374(23) 0.001890 369.5 376.2
346(22) 0.002066 369.4 376.3
367(23) 0.001890 369.3 376.5
400(24) 0.001736 369.2 376.8
383(23) 0.001890 369.1 377.2
342(22) 0.002066 369.0 377.8
345(22) 0.002066 368.9 378.5
382(23) 0.001890 368.7 379.5
379(23) 0.001890 368.6 380.8
370(23) 0.001890 368.5 382.8
369(23) 0.001890 368.4 385.7
356(22) 0.002066 368.3 390.4
416(24) 0.001736 368.2 397.6
384(23) 0.001890 368.1 408.9
447(25) 0.001600 368.0 425.3
454(25) 0.001600 367.8 447.5
434(25) 0.001600 367.7 474.2
482(26) 0.001479 367.6 501.4
481(26) 0.001479 367.5 521.3
520(27) 0.001372 367.4 524.7
550(28) 0.001276 367.3 508.9
530(27) 0.001372 367.2 481.8
487(26) 0.001479 367.1 453.5
445(25) 0.001600 367.0 429.3
462(26) 0.001479 366.9 411.1
439(25) 0.001600 366.8 398.5
416(24) 0.001736 366.6 390.3
418(24) 0.001736 366.5 385.1
451(25) 0.001600 366.4 381.8
437(25) 0.001600 366.3 379.7
444(25) 0.001600 366.2 378.3
374(23) 0.001890 366.1 377.4
378(23) 0.001890 366.0 376.9
372(23) 0.001890 365.9 377.0
418(24) 0.001736 365.8 377.8
380(23) 0.001890 365.7 379.6
379(23) 0.001890 365.6 382.5
377(23) 0.001890 365.5 387.0
397(24) 0.001736 365.4 392.6
404(24) 0.001736 365.3 398.5
419(24) 0.001736 365.2 402.9
411(24) 0.001736 365.1 403.6
403(24) 0.001736 365.0 399.8
362(23) 0.001890 364.9 393.6
350(22) 0.002066 364.8 387.2
392(24) 0.001736 364.6 381.8
404(24) 0.001736 364.5 377.6
381(23) 0.001890 364.4 374.6
357(23) 0.001890 364.3 372.7
355(22) 0.002066 364.2 371.4
364(23) 0.001890 364.1 370.5
363(23) 0.001890 364.0 369.9
353(22) 0.002066 363.9 369.4
361(23) 0.001890 363.8 369.1
383(23) 0.001890 363.7 368.8
361(23) 0.001890 363.6 368.6
346(22) 0.002066 363.5 368.4
336(22) 0.002066 363.4 368.2
343(22) 0.002066 363.3 368.1
389(24) 0.001736 363.2 368.1
388(23) 0.001890 363.1 368.1
367(23) 0.001890 363.0 368.1
358(23) 0.001890 363.0 368.2
359(23) 0.001890 362.9 368.4
368(23) 0.001890 362.8 368.6
339(22) 0.002066 362.7 368.9
372(23) 0.001890 362.6 369.1
358(23) 0.001890 362.5 369.2
366(23) 0.001890 362.4 369.3
396(24) 0.001736 362.3 369.4
343(22) 0.002066 362.2 369.6
367(23) 0.001890 362.1 369.9
381(23) 0.001890 362.0 370.3
371(23) 0.001890 361.9 370.9
393(24) 0.001736 361.8 371.7
417(24) 0.001736 361.7 372.7
392(24) 0.001736 361.6 373.9
362(23) 0.001890 361.5 375.5
390(24) 0.001736 361.4 377.8
423(25) 0.001600 361.3 380.9
433(25) 0.001600 361.2 385.5
394(24) 0.001736 361.2 392.3
389(24) 0.001736 361.1 402.6
396(24) 0.001736 361.0 417.5
454(25) 0.001600 360.9 438.1
443(25) 0.001600 360.8 464.5
460(26) 0.001479 360.7 494.8
537(28) 0.001276 360.6 524.2
547(28) 0.001276 360.5 546.5
542(28) 0.001276 360.4 555.2
539(28) 0.001276 360.3 545.1
513(27) 0.001372 360.2 518.6
517(27) 0.001372 360.2 485.6
440(25) 0.001600 360.1 454.7
442(25) 0.001600 360.0 429.5
435(25) 0.001600 359.9 410.9
386(23) 0.001890 359.8 397.9
395(24) 0.001736 359.7 389.3
383(23) 0.001890 359.6 383.8
391(22) 0.002066 359.5 380.2
388(22) 0.002066 359.5 377.8
414(23) 0.001890 359.4 376.2
354(21) 0.002268 359.3 375.3
370(22) 0.002066 359.2 375.0
408(23) 0.001890 359.1 375.3
387(22) 0.002066 359.0 376.3
380(22) 0.002066 358.9 378.3
367(22) 0.002066 358.9 381.3
385(22) 0.002066 358.8 385.5
432(23) 0.001890 358.7 390.1
413(23) 0.001890 358.6 394.3
405(23) 0.001890 358.5 396.5
417(23) 0.001890 358.4 395.6
389(22) 0.002066 358.3 392.1
387(22) 0.002066 358.3 387.9
388(22) 0.002066 358.2 384.2
388(22) 0.002066 358.1 381.4
411(23) 0.001890 358.0 379.9
367(22) 0.002066 357.9 379.4
383(22) 0.002066 357.9 380.0
366(22) 0.002066 357.8 381.4
378(22) 0.002066 357.7 383.9
370(22) 0.002066 357.6 387.5
394(22) 0.002066 357.5 393.0
394(22) 0.002066 357.5 401.1
390(22) 0.002066 357.4 413.4
416(23) 0.001890 357.3 431.7
420(23) 0.001890 357.2 458.3
466(24) 0.001736 357.1 494.8
497(25) 0.001600 357.1 541.3
559(27) 0.001372 357.0 594.5
642(29) 0.001189 356.9 645.4
702(30) 0.001111 356.8 680.5
687(30) 0.001111 356.7 686.3
694(30) 0.001111 356.7 658.6
683(29) 0.001189 356.6 608.5
600(28) 0.001276 356.5 552.9
555(27) 0.001372 356.4 503.2
499(25) 0.001600 356.4 463.6
498(25) 0.001600 356.3 434.4
470(24) 0.001736 356.2 414.0
436(24) 0.001736 356.1 400.2
404(23) 0.001890 356.0 390.9
391(22) 0.002066 356.0 384.5
412(23) 0.001890 355.9 380.0
402(23) 0.001890 355.8 376.5
455(24) 0.001736 355.7 373.8
419(23) 0.001890 355.7 371.6
400(23) 0.001890 355.6 369.8
398(22) 0.002066 355.5 368.3
415(23) 0.001890 355.4 367.1
372(22) 0.002066 355.4 366.0
379(22) 0.002066 355.3 365.0
358(21) 0.002268 355.2 364.2
374(22) 0.002066 355.2 363.5
390(22) 0.002066 355.1 362.9
357(21) 0.002268 355.0 362.4
359(21) 0.002268 354.9 361.9
343(21) 0.002268 354.9 361.4
340(21) 0.002268 354.8 361.2
334(21) 0.002268 354.7 360.8
348(21) 0.002268 354.6 360.6
333(21) 0.002268 354.6 360.3
325(20) 0.002500 354.5 360.1
360(21) 0.002268 354.4 360.0
341(21) 0.002268 354.4 360.0
340(21) 0.002268 354.3 360.0
368(22) 0.002066 354.2 360.2
356(21) 0.002268 354.2 360.5
368(22) 0.002066 354.1 361.1
396(22) 0.002066 354.0 361.9
378(22) 0.002066 353.9 362.9
341(21) 0.002268 353.9 363.9
350(21) 0.002268 353.8 364.6
336(21) 0.002268 353.7 364.6
338(21) 0.002268 353.7 364.0
356(21) 0.002268 353.6 363.0
401(23) 0.001890 353.5 361.9
372(22) 0.002066 353.5 361.0
367(22) 0.002066 353.4 360.3
360(21) 0.002268 353.3 359.8
371(22) 0.002066 353.3 359.6
356(21) 0.002268 353.2 359.6
391(22) 0.002066 353.1 359.7
361(21) 0.002268 353.1 360.0
372(22) 0.002066 353.0 360.5
365(22) 0.002066 352.9 361.3
357(21) 0.002268 352.9 362.6
355(21) 0.002268 352.8 364.4
372(22) 0.002066 352.7 367.1
371(22) 0.002066 352.7 370.9
390(22) 0.002066 352.6 375.9
404(23) 0.001890 352.5 382.0
383(22) 0.002066 352.5 388.7
395(22) 0.002066 352.4 394.7
396(22) 0.002066 352.3 398.3
380(22) 0.002066 352.3 398.2
400(23) 0.001890 352.2 394.5
400(23) 0.001890 352.1 388.5
376(21) 0.002268 352.1 382.1
385(21) 0.002268 352.0 376.7
386(21) 0.002268 352.0 372.5
383(21) 0.002268 351.9 369.7
375(21) 0.002268 351.8 368.1
388(21) 0.002268 351.8 367.6
370(21) 0.002268 351.7 368.1
348(20) 0.002500 351.6 369.6
344(20) 0.002500 351.6 372.4
356(20) 0.002500 351.5 376.9
368(20) 0.002500 351.5 383.6
385(21) 0.002268 351.4 393.0
415(22) 0.002066 351.3 405.1
413(22) 0.002066 351.3 419.6
424(22) 0.002066 351.2 434.6
428(22) 0.002066 351.1 446.5
442(22) 0.002066 351.1 450.8
448(23) 0.001890 351.0 445.9
401(21) 0.002268 351.0 434.3
428(22) 0.002066 350.9 419.6
419(22) 0.002066 350.8 405.3
385(21) 0.002268 350.8 393.0
395(21) 0.002268 350.7 383.5
369(21) 0.002268 350.7 376.4
352(20) 0.002500 350.6 371.6
375(21) 0.002268 350.5 368.3
357(20) 0.002500 350.5 366.3
351(20) 0.002500 350.4 365.1
341(20) 0.002500 350.4 364.6
344(20) 0.002500 350.3 364.8
366(20) 0.002500 350.2 365.7
346(20) 0.002500 350.2 367.5
340(20) 0.002500 350.1 370.4
358(20) 0.002500 350.1 374.3
368(20) 0.002500 350.0 379.3
370(21) 0.002268 350.0 384.8
374(21) 0.002268 349.9 389.7
392(21) 0.002268 349.8 392.2
370(21) 0.002268 349.8 391.0
393(21) 0.002268 349.7 386.8
408(22) 0.002066 349.7 381.3
394(21) 0.002268 349.6 376.0
395(21) 0.002268 349.6 371.7
366(20) 0.002500 349.5 368.5
384(21) 0.002268 349.4 366.4
389(21) 0.002268 349.4 365.3
379(21) 0.002268 349.3 365.1
374(21) 0.002268 349.3 365.8
364(20) 0.002500 349.2 367.5
354(20) 0.002500 349.2 370.3
363(20) 0.002500 349.1 374.6
372(21) 0.002268 349.0 380.7
400(21) 0.002268 349.0 388.7
409(22) 0.002066 348.9 398.5
407(22) 0.002066 348.9 409.1
424(22) 0.002066 348.8 419.0
419(22) 0.002066 348.8 425.6
395(21) 0.002268 348.7 427.0
411(22) 0.002066 348.7 422.5
394(21) 0.002268 348.6 413.5
387(21) 0.002268 348.5 402.8
401(21) 0.002268 348.5 392.7
381(21) 0.002268 348.4 384.4
370(20) 0.002500 348.4 378.3
356(20) 0.002500 348.3 374.1
359(20) 0.002500 348.3 371.6
360(20) 0.002500 348.2 370.6
357(20) 0.002500 348.2 371.0
346(20) 0.002500 348.1 372.9
366(20) 0.002500 348.1 376.5
357(20) 0.002500 348.0 382.1
358(20) 0.002500 347.9 390.2
397(21) 0.002268 347.9 401.0
430(22) 0.002066 347.8 414.3
454(23) 0.001890 347.8 429.1
445(22) 0.002066 347.7 442.4
441(22) 0.002066 347.7 450.0
452(23) 0.001890 347.6 448.4
442(22) 0.002066 347.6 438.2
444(22) 0.002066 347.5 423.8
431(22) 0.002066 347.5 409.0
396(21) 0.002268 347.4 396.2
366(20) 0.002500 347.4 385.9
374(21) 0.002268 347.3 378.3
380(21) 0.002268 347.3 373.0
357(20) 0.002500 347.2 369.5
343(20) 0.002500 347.1 367.4
363(20) 0.002500 347.1 366.5
360(20) 0.002500 347.0 366.7
367(20) 0.002500 347.0 367.7
376(21) 0.002268 346.9 369.8
372(21) 0.002268 346.9 372.7
354(20) 0.002500 346.8 376.4
350(20) 0.002500 346.8 380.3
380(21) 0.002268 346.7 383.5
379(21) 0.002268 346.7 384.8
364(20) 0.002500 346.6 383.7
333(19) 0.002770 346.6 380.7
372(21) 0.002268 346.5 377.0
381(21) 0.002268 346.5 373.4
406(21) 0.002268 346.4 370.7
369(20) 0.002500 346.4 368.9
349(19) 0.002770 346.3 368.1
382(20) 0.002500 346.3 368.3
342(19) 0.002770 346.2 369.6
331(19) 0.002770 346.2 372.2
331(19) 0.002770 346.1 376.4
389(20) 0.002500 346.1 382.6
365(19) 0.002770 346.0 391.5
394(20) 0.002500 346.0 403.3
383(20) 0.002500 345.9 418.4
436(21) 0.002268 345.9 436.4
428(21) 0.002268 345.8 455.0
447(21) 0.002268 345.8 470.6
478(22) 0.002066 345.7 477.5
518(23) 0.001890 345.7 472.7
463(22) 0.002066 345.6 458.8
480(22) 0.002066 345.6 441.2
471(22) 0.002066 345.5 424.4
419(21) 0.002268 345.5 410.2
410(21) 0.002268 345.4 399.6
380(20) 0.002500 345.4 392.6
390(20) 0.002500 345.3 388.9
360(19) 0.002770 345.3 388.5
365(19) 0.002770 345.2 391.2
378(20) 0.002500 345.2 397.2
358(19) 0.002770 345.1 406.5
362(19) 0.002770 345.1 419.3
406(21) 0.002268 345.0 434.8
433(21) 0.002268 345.0 451.5
438(21) 0.002268 344.9 465.7
437(21) 0.002268 344.9 472.4
465(22) 0.002066 344.8 468.5
425(21) 0.002268 344.8 455.7
419(21) 0.002268 344.7 439.0
408(21) 0.002268 344.7 422.0
401(20) 0.002500 344.6 407.2
412(21) 0.002268 344.6 395.3
370(20) 0.002500 344.5 386.4
384(20) 0.002500 344.5 380.3
408(21) 0.002268 344.4 376.5
394(20) 0.002500 344.4 374.6
352(19) 0.002770 344.3 374.5
358(19) 0.002770 344.3 376.1
371(20) 0.002500 344.2 379.3
364(19) 0.002770 344.2 384.1
402(20) 0.002500 344.1 390.4
406(21) 0.002268 344.1 397.6
424(21) 0.002268 344.0 404.4
438(21) 0.002268 344.0 408.6
427(21) 0.002268 343.9 408.4
405(20) 0.002500 343.9 403.8
399(20) 0.002500 343.8 396.7
407(21) 0.002268 343.8 389.2
404(20) 0.002500 343.7 382.6
368(20) 0.002500 343.7 377.6
354(19) 0.002770 343.6 374.2
371(20) 0.002500 343.6 372.5
340(19) 0.002770 343.5 372.5
372(20) 0.002500 343.5 374.2
384(20) 0.002500 343.4 377.4
400(20) 0.002500 343.4 382.2
401(20) 0.002500 343.3 388.2
402(20) 0.002500 343.3 394.6
411(21) 0.002268 343.2 400.2
415(21) 0.002268 343.2 403.0
418(21) 0.002268 343.1 401.8
370(20) 0.002500 343.1 397.2
372(20) 0.002500 343.0 391.1
357(19) 0.002770 343.0 385.2
361(19) 0.002770 342.9 380.3
380(20) 0.002500 342.9 376.8
338(19) 0.002770 342.8 374.8
399(20) 0.002500 342.8 374.4
374(20) 0.002500 342.7 375.5
402(20) 0.002500 342.7 378.4
404(20) 0.002500 342.6 383.3
410(21) 0.002268 342.6 390.5
450(22) 0.002066 342.5 400.4
423(21) 0.002268 342.5 413.3
451(22) 0.002066 342.4 429.0
438(21) 0.002268 342.4 446.5
454(22) 0.002066 342.3 463.3
474(22) 0.002066 342.3 476.1
471(22) 0.002066 342.2 482.4
482(22) 0.002066 342.2 482.5
480(22) 0.002066 342.1 477.7
449(22) 0.002066 342.1 468.7
437(21) 0.002268 342.0 455.4
446(21) 0.002268 342.0 439.6
446(21) 0.002268 341.9 423.8
436(21) 0.002268 341.9 409.8
392(20) 0.002500 341.8 398.6
387(20) 0.002500 341.8 390.2
412(21) 0.002268 341.7 384.5
401(20) 0.002500 341.7 381.1
373(20) 0.002500 341.6 379.8
403(20) 0.002500 341.6 380.6
398(20) 0.002500 341.5 383.1
394(20) 0.002500 341.5 387.4
388(19) 0.002770 341.4 393.1
422(20) 0.002500 341.4 399.5
428(20) 0.002500 341.3 405.4
402(20) 0.002500 341.3 408.8
429(20) 0.002500 341.2 408.2
403(20) 0.002500 341.2 403.8
397(20) 0.002500 341.1 397.4
355(19) 0.002770 341.1 390.7
434(20) 0.002500 341.0 384.9
399(20) 0.002500 341.0 380.4
390(19) 0.002770 340.9 377.4
375(19) 0.002770 340.9 376.0
349(18) 0.003086 340.8 376.1
384(19) 0.002770 340.8 377.8
348(18) 0.003086 340.7 381.1
398(20) 0.002500 340.7 386.1
371(19) 0.002770 340.6 392.9
375(19) 0.002770 340.6 401.3
362(19) 0.002770 340.5 411.0
430(20) 0.002500 340.5 420.9
450(21) 0.002268 340.4 429.1
457(21) 0.002268 340.4 433.5
440(21) 0.002268 340.3 433.1
435(21) 0.002268 340.3 428.9
408(20) 0.002500 340.2 423.1
425(20) 0.002500 340.2 418.1
394(20) 0.002500 340.1 415.3
406(20) 0.002500 340.1 415.7
430(20) 0.002500 340.0 420.1
438(21) 0.002268 340.0 429.1
446(21) 0.002268 339.9 443.4
492(22) 0.002066 339.9 463.8
440(21) 0.002268 339.8 490.7
528(23) 0.001890 339.8 523.6
571(23) 0.001890 339.7 560.8
611(24) 0.001736 339.7 597.9
639(25) 0.001600 339.6 628.2
669(25) 0.001600 339.6 645.6
629(25) 0.001600 339.5 646.4
643(25) 0.001600 339.5 630.4
571(23) 0.001890 339.4 601.0
555(23) 0.001890 339.4 564.9
531(23) 0.001890 339.3 528.4
459(21) 0.002268 339.3 495.7
483(22) 0.002066 339.2 468.8
450(21) 0.002268 339.2 448.2
423(20) 0.002500 339.1 433.6
423(20) 0.002500 339.1 424.3
447(21) 0.002268 339.0 419.8
423(20) 0.002500 339.0 419.7
421(20) 0.002500 338.9 423.9
419(20) 0.002500 338.8 432.3
487(22) 0.002066 338.8 445.1
453(21) 0.002268 338.7 461.9
483(22) 0.002066 338.7 481.8
519(22) 0.002066 338.6 502.3
548(23) 0.001890 338.6 518.7
572(23) 0.001890 338.5 525.7
577(24) 0.001736 338.5 520.2
545(23) 0.001890 338.4 504.5
479(22) 0.002066 338.4 484.1
496(22) 0.002066 338.3 463.9
437(21) 0.002268 338.3 446.7
412(20) 0.002500 338.2 433.8
412(20) 0.002500 338.2 425.7
414(20) 0.002500 338.1 422.5
411(20) 0.002500 338.1 424.0
413(20) 0.002500 338.0 430.3
423(20) 0.002500 338.0 441.1
443(21) 0.002268 337.9 455.8
488(22) 0.002066 337.9 473.2
465(21) 0.002268 337.8 490.6
537(23) 0.001890 337.8 503.5
495(22) 0.002066 337.7 507.6
497(22) 0.002066 337.7 501.0
483(22) 0.002066 337.6 486.4
490(22) 0.002066 337.5 467.9
439(21) 0.002268 337.5 449.6
424(20) 0.002500 337.4 433.8
412(20) 0.002500 337.4 421.5
422(20) 0.002500 337.3 413.2
433(20) 0.002500 337.3 408.9
425(20) 0.002500 337.2 408.3
422(20) 0.002500 337.2 411.3
396(20) 0.002500 337.1 417.3
460(21) 0.002268 337.1 425.7
425(20) 0.002500 337.0 434.9
433(20) 0.002500 337.0 443.0
427(20) 0.002500 336.9 448.0
444(21) 0.002268 336.9 448.9
432(20) 0.002500 336.8 445.4
431(20) 0.002500 336.8 438.0
424(20) 0.002500 336.7 427.7
435(21) 0.002268 336.6 416.1
408(20) 0.002500 336.6 405.1
384(19) 0.002770 336.5 395.5
411(20) 0.002500 336.5 387.9
393(20) 0.002500 336.4 382.5
363(19) 0.002770 336.4 379.3
390(19) 0.002770 336.3 378.1
366(18) 0.003086 336.3 378.9
382(19) 0.002770 336.2 381.6
384(19) 0.002770 336.2 386.1
395(19) 0.002770 336.1 392.3
398(19) 0.002770 336.1 399.6
430(20) 0.002500 336.0 407.0
423(19) 0.002770 335.9 412.8
430(20) 0.002500 335.9 415.1
419(19) 0.002770 335.8 412.9
395(19) 0.002770 335.8 406.7
416(19) 0.002770 335.7 398.4
401(19) 0.002770 335.7 389.6
388(19) 0.002770 335.6 381.7
406(19) 0.002770 335.6 375.1
369(18) 0.003086 335.5 370.0
359(18) 0.003086 335.5 366.5
357(18) 0.003086 335.4 364.3
365(18) 0.003086 335.4 363.3
391(19) 0.002770 335.3 363.2
359(18) 0.003086 335.2 363.5
404(19) 0.002770 335.2 363.6
362(18) 0.003086 335.1 363.0
369(18) 0.003086 335.1 361.4
362(18) 0.003086 335.0 359.0
358(18) 0.003086 335.0 356.3
362(18) 0.003086 334.9 353.7
351(18) 0.003086 334.9 351.4
362(18) 0.003086 334.8 349.4
324(17) 0.003460 334.7 347.8
374(18) 0.003086 334.7 346.5
365(18) 0.003086 334.6 345.5
387(19) 0.002770 334.6 344.7
367(18) 0.003086 334.5 344.2
330(17) 0.003460 334.5 343.7
332(17) 0.003460 334.4 343.5
341(18) 0.003086 334.4 343.3
363(18) 0.003086 334.3 343.3
340(17) 0.003460 334.2 343.4
314(17) 0.003460 334.2 343.6
334(17) 0.003460 334.1 343.9
359(18) 0.003086 334.1 344.1
333(17) 0.003460 334.0 344.2
342(18) 0.003086 334.0 344.2
353(18) 0.003086 333.9 343.9
351(18) 0.003086 333.9 343.5
359(18) 0.003086 333.8 343.1
358(18) 0.003086 333.7 342.7
368(18) 0.003086 333.7 342.4
359(18) 0.003086 333.6 342.3
361(18) 0.003086 333.6 342.2
338(17) 0.003460 333.5 342.3
347(18) 0.003086 333.5 342.6
347(18) 0.003086 333.4 342.9
338(17) 0.003460 333.4 343.4
333(17) 0.003460 333.3 344.1
342(18) 0.003086 333.2 344.8
344(18) 0.003086 333.2 345.6
345(18) 0.003086 333.1 346.4
365(18) 0.003086 333.1 347.1
344(18) 0.003086 333.0 347.9
331(17) 0.003460 333.0 348.8
351(18) 0.003086 332.9 350.1
369(18) 0.003086 332.9 351.9
364(18) 0.003086 332.8 354.4
359(18) 0.003086 332.7 357.8
336(17) 0.003460 332.7 362.2
393(19) 0.002770 332.6 367.8
385(19) 0.002770 332.6 374.4
386(19) 0.002770 332.5 381.8
369(18) 0.003086 332.5 389.3
396(19) 0.002770 332.4 395.7
400(19) 0.002770 332.3 399.8
380(18) 0.003086 332.3 400.7
391(19) 0.002770 332.2 398.1
373(18) 0.003086 332.2 392.6
365(18) 0.003086 332.1 385.7
390(19) 0.002770 332.1 378.5
352(18) 0.003086 332.0 372.1
362(18) 0.003086 331.9 366.8
357(18) 0.003086 331.9 362.8
372(18) 0.003086 331.8 360.1
366(18) 0.003086 331.8 358.6
358(18) 0.003086 331.7 358.2
335(17) 0.003460 331.7 358.6
335(17) 0.003460 331.6 359.8
339(17) 0.003460 331.5 361.3
323(17) 0.003460 331.5 362.7
338(17) 0.003460 331.4 363.7
333(17) 0.003460 331.4 364.0
343(18) 0.003086 331.3 363.6
362(18) 0.003086 331.3 362.6
365(18) 0.003086 331.2 361.0
382(19) 0.002770 331.1 359.1
403(19) 0.002770 331.1 357.2
345(18) 0.003086 331.0 355.6
346(18) 0.003086 331.0 354.7
364(18) 0.003086 330.9 354.5
354(18) 0.003086 330.9 355.0
360(18) 0.003086 330.8 356.3
358(18) 0.003086 330.7 358.5
335(24) 0.001736 330.7 361.5
368(17) 0.003460 330.6 365.2
380(18) 0.003086 330.6 369.3
366(17) 0.003460 330.5 373.4
371(18) 0.003086 330.5 376.7
361(17) 0.003460 330.4 378.2
370(18) 0.003086 330.3 378.0
386(18) 0.003086 330.3 376.3
393(18) 0.003086 330.2 374.2
370(18) 0.003086 330.2 372.5
345(17) 0.003460 330.1 371.8
362(17) 0.003460 330.1 372.6
386(18) 0.003086 330.0 375.0
360(17) 0.003460 329.9 379.5
365(17) 0.003460 329.9 386.2
383(18) 0.003086 329.8 395.5
403(18) 0.003086 329.8 407.4
430(19) 0.002770 329.7 421.7
469(20) 0.002500 329.6 437.9
473(20) 0.002500 329.6 454.4
482(20) 0.002500 329.5 468.6
502(20) 0.002500 329.5 477.2
495(20) 0.002500 329.4 477.9
496(20) 0.002500 329.4 470.3
481(20) 0.002500 329.3 456.9
461(19) 0.002770 329.2 440.8
406(18) 0.003086 329.2 424.7
373(18) 0.003086 329.1 410.5
374(18) 0.003086 329.1 398.8
393(18) 0.003086 329.0 389.9
384(18) 0.003086 329.0 383.5
375(18) 0.003086 328.9 379.5
370(18) 0.003086 328.8 377.5
355(17) 0.003460 328.8 376.9
402(18) 0.003086 328.7 377.2
398(18) 0.003086 328.7 377.8
371(18) 0.003086 328.6 378.1
372(18) 0.003086 328.5 377.8
386(18) 0.003086 328.5 376.4
379(18) 0.003086 328.4 373.8
371(18) 0.003086 328.4 370.2
370(18) 0.003086 328.3 366.1
363(17) 0.003460 328.3 361.9
344(17) 0.003460 328.2 358.4
328(17) 0.003460 328.1 355.4
348(17) 0.003460 328.1 353.2
338(17) 0.003460 328.0 351.9
354(17) 0.003460 328.0 351.3
343(17) 0.003460 327.9 351.5
359(17) 0.003460 327.9 352.4
378(18) 0.003086 327.8 353.8
375(18) 0.003086 327.7 355.6
376(18) 0.003086 327.7 357.3
366(17) 0.003460 327.6 358.5
369(18) 0.003086 327.6 358.6
355(17) 0.003460 327.5 357.5
348(17) 0.003460 327.5 355.3
366(17) 0.003460 327.4 352.5
316(16) 0.00391 327.3 349.6
334(17) 0.003460 327.3 346.9
360(17) 0.003460 327.2 344.7
333(17) 0.003460 327.2 342.8
330(17) 0.003460 327.1 341.3
334(17) 0.003460 327.0 340.2
347(17) 0.003460 327.0 339.5
362(17) 0.003460 326.9 338.9
329(17) 0.003460 326.9 338.6
330(17) 0.003460 326.8 338.5
320(16) 0.00391 326.8 338.5
322(16) 0.00391 326.7 338.5
323(16) 0.00391 326.6 338.6
324(16) 0.00391 326.6 338.9
336(17) 0.003460 326.5 339.4
333(17) 0.003460 326.5 340.1
345(17) 0.003460 326.4 341.3
347(17) 0.003460 326.4 342.8
326(17) 0.003460 326.3 344.9
328(17) 0.003460 326.2 347.4
343(17) 0.003460 326.2 350.4
349(17) 0.003460 326.1 353.8
352(17) 0.003460 326.1 357.2
361(17) 0.003460 326.0 360.3
364(17) 0.003460 326.0 362.3
372(18) 0.003086 325.9 363.1
361(17) 0.003460 325.8 362.3
350(17) 0.003460 325.8 360.2
366(17) 0.003460 325.7 357.3
380(18) 0.003086 325.7 354.1
365(17) 0.003460 325.6 351.0
352(17) 0.003460 325.6 348.2
338(17) 0.003460 325.5 346.0
365(17) 0.003460 325.4 344.4
364(17) 0.003460 325.4 343.4
342(17) 0.003460 325.3 343.0
339(17) 0.003460 325.3 343.2
343(17) 0.003460 325.2 343.9
355(17) 0.003460 325.2 345.0
375(18) 0.003086 325.1 346.6
364(17) 0.003460 325.0 348.5
357(17) 0.003460 325.0 350.4
366(17) 0.003460 324.9 351.9
363(17) 0.003460 324.9 352.7
355(17) 0.003460 324.8 352.6
350(17) 0.003460 324.8 352.0
369(17) 0.003460 324.7 351.1
365(17) 0.003460 324.7 350.5
366(17) 0.003460 324.6 350.4
376(18) 0.003086 324.5 350.9
376(18) 0.003086 324.5 352.2
355(17) 0.003460 324.4 354.1
360(17) 0.003460 324.4 356.5
365(17) 0.003460 324.3 359.1
365(17) 0.003460 324.3 361.1
373(18) 0.003086 324.2 362.1
350(17) 0.003460 324.1 361.7
366(17) 0.003460 324.1 360.0
366(17) 0.003460 324.0 357.4
336(17) 0.003460 324.0 354.3
335(17) 0.003460 323.9 351.0
357(17) 0.003460 323.9 347.9
361(17) 0.003460 323.8 345.1
315(16) 0.00391 323.8 342.8
328(16) 0.00391 323.7 341.0
325(16) 0.00391 323.6 339.7
338(17) 0.003460 323.6 338.8
338(17) 0.003460 323.5 338.4
307(16) 0.00391 323.5 338.3
308(16) 0.00391 323.4 338.4
347(17) 0.003460 323.4 338.8
353(17) 0.003460 323.3 339.1
347(17) 0.003460 323.3 339.4
347(17) 0.003460 323.2 339.4
331(17) 0.003460 323.1 339.1
333(17) 0.003460 323.1 338.6
343(17) 0.003460 323.0 338.1
340(17) 0.003460 323.0 337.8
326(16) 0.00391 322.9 337.7
345(17) 0.003460 322.9 337.9
344(17) 0.003460 322.8 338.5
347(17) 0.003460 322.8 339.5
334(17) 0.003460 322.7 340.9
344(17) 0.003460 322.7 342.8
357(17) 0.003460 322.6 345.0
342(17) 0.003460 322.5 347.6
358(17) 0.003460 322.5 350.2
381(18) 0.003086 322.4 352.5
373(18) 0.003086 322.4 353.9
360(17) 0.003460 322.3 354.3
354(17) 0.003460 322.3 353.4
349(17) 0.003460 322.2 351.7
333(17) 0.003460 322.2 349.5
344(17) 0.003460 322.1 347.2
341(17) 0.003460 322.1 345.3
339(17) 0.003460 322.0 343.7
342(17) 0.003460 322.0 342.8
326(16) 0.00391 321.9 342.3
335(17) 0.003460 321.8 342.4
368(17) 0.003460 321.8 343.0
379(18) 0.003086 321.7 343.9
366(17) 0.003460 321.7 345.1
355(17) 0.003460 321.6 346.1
351(17) 0.003460 321.6 346.8
334(17) 0.003460 321.5 346.8
347(17) 0.003460 321.5 346.2
362(17) 0.003460 321.4 345.1
341(17) 0.003460 321.4 343.8
342(17) 0.003460 321.3 342.5
343(17) 0.003460 321.3 341.3
333(17) 0.003460 321.2 340.5
341(17) 0.003460 321.2 340.0
332(17) 0.003460 321.1 339.8
350(17) 0.003460 321.1 340.0
333(17) 0.003460 321.0 340.5
333(17) 0.003460 321.0 341.2
354(17) 0.003460 320.9 342.0
357(17) 0.003460 320.8 342.9
348(17) 0.003460 320.8 343.8
347(17) 0.003460 320.7 344.6
338(17) 0.003460 320.7 345.5
330(17) 0.003460 320.6 346.4
328(16) 0.00391 320.6 347.5
330(17) 0.003460 320.5 348.9
341(17) 0.003460 320.5 351.0
336(17) 0.003460 320.4 353.7
329(16) 0.00391 320.4 357.3
365(17) 0.003460 320.3 361.8
375(18) 0.003086 320.3 367.3
389(18) 0.003086 320.2 373.8
409(18) 0.003086 320.2 381.1
435(19) 0.002770 320.1 388.6
388(18) 0.003086 320.1 395.6
418(19) 0.002770 320.0 401.0
405(18) 0.003086 320.0 403.6
404(18) 0.003086 319.9 403.4
404(18) 0.003086 319.9 400.8
409(18) 0.003086 319.8 397.0
391(18) 0.003086 319.8 393.4
379(18) 0.003086 319.7 390.8
403(18) 0.003086 319.7 389.8
392(18) 0.003086 319.6 390.8
383(14) 0.00510 319.6 393.9
408(18) 0.003086 319.5 399.1
418(18) 0.003086 319.5 406.5
431(19) 0.002770 319.4 415.8
464(19) 0.002770 319.4 426.6
449(19) 0.002770 319.3 438.1
454(19) 0.002770 319.3 449.1
446(19) 0.002770 319.2 457.9
488(20) 0.002500 319.2 462.9
487(20) 0.002500 319.1 462.9
481(20) 0.002500 319.1 458.7
476(20) 0.002500 319.0 451.8
428(19) 0.002770 319.0 444.4
412(18) 0.003086 318.9 438.0
420(19) 0.002770 318.9 433.7
412(18) 0.003086 318.8 431.8
420(19) 0.002770 318.8 432.1
445(19) 0.002770 318.7 434.0
412(18) 0.003086 318.7 436.4
406(18) 0.003086 318.6 438.3
425(19) 0.002770 318.6 438.2
411(18) 0.003086 318.5 435.5
388(18) 0.003086 318.5 430.1
423(19) 0.002770 318.5 422.5
382(18) 0.003086 318.4 413.5
398(18) 0.003086 318.4 403.9
387(18) 0.003086 318.3 394.5
361(17) 0.003460 318.3 385.8
373(17) 0.003460 318.2 378.2
369(17) 0.003460 318.2 371.9
367(17) 0.003460 318.1 366.9
360(17) 0.003460 318.1 363.2
369(17) 0.003460 318.0 360.6
340(17) 0.003460 318.0 359.1
386(18) 0.003086 317.9 358.4
367(17) 0.003460 317.9 358.5
364(17) 0.003460 317.8 358.9
357(17) 0.003460 317.8 359.4
344(17) 0.003460 317.7 359.6
357(17) 0.003460 317.7 359.4
369(17) 0.003460 317.7 358.5
368(17) 0.003460 317.6 357.3
355(17) 0.003460 317.6 356.1
372(17) 0.003460 317.5 355.1
371(17) 0.003460 317.5 354.5
378(18) 0.003086 317.4 354.4
331(16) 0.00391 317.4 354.5
337(17) 0.003460 317.3 354.9
333(17) 0.003460 317.3 355.5
343(17) 0.003460 317.2 356.3
340(17) 0.003460 317.2 357.2
335(17) 0.003460 317.2 358.4
384(18) 0.003086 317.1 359.8
367(17) 0.003460 317.1 361.3
350(17) 0.003460 317.0 362.6
347(17) 0.003460 317.0 363.8
330(16) 0.00391 316.9 365.2
335(17) 0.003460 316.9 366.9
354(17) 0.003460 316.8 369.4
391(18) 0.003086 316.8 372.8
378(18) 0.003086 316.8 377.3
395(18) 0.003086 316.7 382.7
393(18) 0.003086 316.7 388.8
409(18) 0.003086 316.6 395.1
383(18) 0.003086 316.6 400.9
405(18) 0.003086 316.5 405.3
421(19) 0.002770 316.5 407.5
412(18) 0.003086 316.5 407.1
395(18) 0.003086 316.4 403.9
409(18) 0.003086 316.4 398.4
391(18) 0.003086 316.3 391.2
396(18) 0.003086 316.3 383.3
368(17) 0.003460 316.2 375.5
344(17) 0.003460 316.2 368.3
352(17) 0.003460 316.2 362.0
372(17) 0.003460 316.1 356.6
340(17) 0.003460 316.1 352.2
357(17) 0.003460 316.0 348.5
357(17) 0.003460 316.0 345.5
328(16) 0.00391 315.9 343.1
330(16) 0.00391 315.9 341.0
338(17) 0.003460 315.9 339.2
370(17) 0.003460 315.8 337.6
358(17) 0.003460 315.8 336.1
327(16) 0.00391 315.7 334.6
352(17) 0.003460 315.7 333.2
333(17) 0.003460 315.7 331.9
331(17) 0.003460 315.6 330.8
331(17) 0.003460 315.6 329.7
328(16) 0.00391 315.5 328.8
300(16) 0.00391 315.5 328.1
330(16) 0.00391 315.5 327.4
358(17) 0.003460 315.4 326.9
370(17) 0.003460 315.4 326.5
348(17) 0.003460 315.3 326.2
319(16) 0.00391 315.3 326.0
331(16) 0.00391 315.3 325.8
335(17) 0.003460 315.2 325.8
325(16) 0.00391 315.2 325.9
326(16) 0.00391 315.1 326.1
340(23) 0.001890 315.1 326.3
334(16) 0.00391 315.1 326.7
352(17) 0.003460 315.0 327.3
331(16) 0.00391 315.0 327.9
346(16) 0.00391 314.9 328.7
323(16) 0.00391 314.9 329.7
332(16) 0.00391 314.9 330.7
314(16) 0.00391 314.8 331.8
326(16) 0.00391 314.8 332.9
351(16) 0.00391 314.7 334.0
345(16) 0.00391 314.7 334.9
347(16) 0.00391 314.7 335.7
369(17) 0.003460 314.6 336.1
323(16) 0.00391 314.6 336.2
340(16) 0.00391 314.6 335.9
358(17) 0.003460 314.5 335.4
330(16) 0.00391 314.5 334.8
326(16) 0.00391 314.4 334.2
333(16) 0.00391 314.4 333.8
344(16) 0.00391 314.4 333.6
332(16) 0.00391 314.3 333.5
323(16) 0.00391 314.3 333.6
322(16) 0.00391 314.3 333.8
330(16) 0.00391 314.2 334.1
333(16) 0.00391 314.2 334.5
333(16) 0.00391 314.1 335.0
338(16) 0.00391 314.1 335.7
335(16) 0.00391 314.1 336.6
363(17) 0.003460 314.0 337.7
387(17) 0.003460 314.0 339.1
348(16) 0.00391 314.0 340.7
323(16) 0.00391 313.9 342.8
346(16) 0.00391 313.9 345.3
343(16) 0.00391 313.9 348.3
367(17) 0.003460 313.8 351.9
361(17) 0.003460 313.8 355.9
338(16) 0.00391 313.7 360.3
347(16) 0.00391 313.7 364.8
399(18) 0.003086 313.7 369.3
382(17) 0.003460 313.6 373.6
379(17) 0.003460 313.6 377.4
358(17) 0.003460 313.6 380.5
377(17) 0.003460 313.5 382.4
371(17) 0.003460 313.5 382.9
365(17) 0.003460 313.5 381.8
346(16) 0.00391 313.4 379.7
377(17) 0.003460 313.4 377.0
367(17) 0.003460 313.4 374.3
369(17) 0.003460 313.3 372.2
386(17) 0.003460 313.3 370.9
370(17) 0.003460 313.3 370.5
364(17) 0.003460 313.2 370.9
363(17) 0.003460 313.2 371.7
371(17) 0.003460 313.2 372.6
359(17) 0.003460 313.1 373.0
375(17) 0.003460 313.1 372.5
363(17) 0.003460 313.1 370.8
380(17) 0.003460 313.0 368.2
367(17) 0.003460 313.0 364.9
387(17) 0.003460 313.0 361.3
334(16) 0.00391 312.9 357.7
337(16) 0.00391 312.9 354.5
347(16) 0.00391 312.9 351.7
330(16) 0.00391 312.8 349.5
342(16) 0.00391 312.8 348.0
321(16) 0.00391 312.8 347.0
344(16) 0.00391 312.7 346.6
355(17) 0.003460 312.7 346.6
364(17) 0.003460 312.7 347.0
354(17) 0.003460 312.6 347.6
337(16) 0.00391 312.6 348.3
334(16) 0.00391 312.6 348.9
345(16) 0.00391 312.5 349.2
354(17) 0.003460 312.5 349.4
332(16) 0.00391 312.5 349.5
346(16) 0.00391 312.4 349.9
344(16) 0.00391 312.4 350.6
356(17) 0.003460 312.4 351.8
361(17) 0.003460 312.4 353.8
355(17) 0.003460 312.3 356.4
350(16) 0.00391 312.3 359.7
357(17) 0.003460 312.3 363.5
365(17) 0.003460 312.2 367.6
385(17) 0.003460 312.2 371.6
397(18) 0.003086 312.2 374.9
344(16) 0.00391 312.1 377.1
378(17) 0.003460 312.1 377.7
366(17) 0.003460 312.1 376.7
375(17) 0.003460 312.0 374.3
359(17) 0.003460 312.0 371.2
365(17) 0.003460 312.0 367.7
362(17) 0.003460 312.0 364.4
343(16) 0.00391 311.9 361.7
371(17) 0.003460 311.9 359.7
359(17) 0.003460 311.9 358.5
350(16) 0.00391 311.8 358.0
346(16) 0.00391 311.8 358.1
368(17) 0.003460 311.8 358.8
361(17) 0.003460 311.7 359.8
370(17) 0.003460 311.7 361.1
359(17) 0.003460 311.7 362.3
398(17) 0.003460 311.7 363.1
385(17) 0.003460 311.6 363.4
352(16) 0.00391 311.6 363.1
379(17) 0.003460 311.6 362.4
366(17) 0.003460 311.5 361.5
379(17) 0.003460 311.5 360.9
364(17) 0.003460 311.5 360.8
378(17) 0.003460 311.5 361.4
363(17) 0.003460 311.4 362.9
368(17) 0.003460 311.4 365.4
370(17) 0.003460 311.4 368.8
408(18) 0.003086 311.3 373.1
399(17) 0.003460 311.3 377.9
378(17) 0.003460 311.3 382.8
427(18) 0.003086 311.3 387.3
409(18) 0.003086 311.2 390.6
387(17) 0.003460 311.2 392.0
378(17) 0.003460 311.2 391.2
389(17) 0.003460 311.2 388.6
361(17) 0.003460 311.1 384.7
365(17) 0.003460 311.1 380.2
363(17) 0.003460 311.1 375.7
353(16) 0.00391 311.0 371.6
371(17) 0.003460 311.0 368.0
383(17) 0.003460 311.0 364.8
354(16) 0.00391 311.0 362.1
348(16) 0.00391 310.9 359.7
342(16) 0.00391 310.9 357.5
339(16) 0.00391 310.9 355.5
341(16) 0.00391 310.9 353.6
349(16) 0.00391 310.8 351.8
333(16) 0.00391 310.8 350.2
357(16) 0.00391 310.8 348.8
348(16) 0.00391 310.7 347.6
333(16) 0.00391 310.7 346.9
333(16) 0.00391 310.7 346.7
344(16) 0.00391 310.7 346.9
333(16) 0.00391 310.6 347.7
346(16) 0.00391 310.6 348.8
385(17) 0.003460 310.6 350.2
341(16) 0.00391 310.6 351.5
341(16) 0.00391 310.5 352.6
365(17) 0.003460 310.5 353.3
376(17) 0.003460 310.5 353.2
359(17) 0.003460 310.5 352.4
343(16) 0.00391 310.4 350.8
343(16) 0.00391 310.4 348.6
365(17) 0.003460 310.4 345.9
353(16) 0.00391 310.4 343.0
319(16) 0.00391 310.3 340.1
354(16) 0.00391 310.3 337.2
329(16) 0.00391 310.3 334.6
301(15) 0.00444 310.3 332.2
328(16) 0.00391 310.2 330.1
323(16) 0.00391 310.2 328.4
298(15) 0.00444 310.2 326.8
314(15) 0.00444 310.2 325.5
319(16) 0.00391 310.1 324.5
327(16) 0.00391 310.1 323.6
317(16) 0.00391 310.1 322.9
323(16) 0.00391 310.1 322.3
321(16) 0.00391 310.0 321.8
310(15) 0.00444 310.0 321.5
333(16) 0.00391 310.0 321.2
317(16) 0.00391 310.0 321.0
310(15) 0.00444 309.9 320.9
298(15) 0.00444 309.9 320.9
324(16) 0.00391 309.9 321.0
337(16) 0.00391 309.9 321.1
312(15) 0.00444 309.8 321.4
304(15) 0.00444 309.8 321.7
303(15) 0.00444 309.8 322.1
302(15) 0.00444 309.8 322.6
325(16) 0.00391 309.7 323.2
296(15) 0.00444 309.7 323.9
338(16) 0.00391 309.7 324.7
321(16) 0.00391 309.7 325.6
329(16) 0.00391 309.6 326.7
328(16) 0.00391 309.6 327.9
315(15) 0.00444 309.6 329.3
322(16) 0.00391 309.6 330.9
332(16) 0.00391 309.5 332.6
322(16) 0.00391 309.5 334.5
336(16) 0.00391 309.5 336.4
332(16) 0.00391 309.5 338.3
313(15) 0.00444 309.5 340.2
328(16) 0.00391 309.4 342.0
341(16) 0.00391 309.4 343.6
355(16) 0.00391 309.4 345.0
330(16) 0.00391 309.4 345.8
354(16) 0.00391 309.3 346.1
361(17) 0.003460 309.3 345.7
323(16) 0.00391 309.3 344.8
353(16) 0.00391 309.3 343.5
329(16) 0.00391 309.2 342.1
365(17) 0.003460 309.2 340.8
312(15) 0.00444 309.2 339.6
382(17) 0.003460 309.2 338.7
310(15) 0.00444 309.1 338.1
355(16) 0.00391 309.1 337.6
336(17) 0.003460 309.1 337.4
336(17) 0.003460 309.1 337.3
321(16) 0.00391 309.1 337.2
355(17) 0.003460 309.0 337.0
309(16) 0.00391 309.0 336.6
315(16) 0.00391 309.0 336.1
308(16) 0.00391 309.0 335.4
312(16) 0.00391 308.9 334.6
315(16) 0.00391 308.9 333.9
329(16) 0.00391 308.9 333.2
313(16) 0.00391 308.9 332.8
320(16) 0.00391 308.8 332.6
347(17) 0.003460 308.8 332.7
301(16) 0.00391 308.8 333.0
353(17) 0.003460 308.8 333.4
337(17) 0.003460 308.8 334.0
345(17) 0.003460 308.7 334.5
361(17) 0.003460 308.7 335.0
330(16) 0.00391 308.7 335.3
323(16) 0.00391 308.7 335.5
336(17) 0.003460 308.6 335.6
341(17) 0.003460 308.6 335.7
333(16) 0.00391 308.6 335.9
331(16) 0.00391 308.6 336.3
348(17) 0.003460 308.6 337.0
319(16) 0.00391 308.5 338.0
346(17) 0.003460 308.5 339.1
357(17) 0.003460 308.5 340.5
356(17) 0.003460 308.5 341.9
355(17) 0.003460 308.4 343.1
349(17) 0.003460 308.4 343.9
325(16) 0.00391 308.4 344.3
309(16) 0.00391 308.4 344.1
355(17) 0.003460 308.3 343.5
347(17) 0.003460 308.3 342.7
357(17) 0.003460 308.3 341.8
356(17) 0.003460 308.3 341.0
341(17) 0.003460 308.3 340.5
322(16) 0.00391 308.2 340.1
338(17) 0.003460 308.2 340.0
335(17) 0.003460 308.2 339.9
306(16) 0.00391 308.2 339.9
350(17) 0.003460 308.1 339.6
367(17) 0.003460 308.1 339.2
335(17) 0.003460 308.1 338.5
323(16) 0.00391 308.1 337.5
322(16) 0.00391 308.1 336.5
314(16) 0.00391 308.0 335.5
333(16) 0.00391 308.0 334.6
344(17) 0.003460 308.0 333.9
362(17) 0.003460 308.0 333.6
327(16) 0.00391 307.9 333.5
335(17) 0.003460 307.9 333.8
345(17) 0.003460 307.9 334.4
321(16) 0.00391 307.9 335.3
345(17) 0.003460 307.8 336.7
343(17) 0.003460 307.8 338.4
337(17) 0.003460 307.8 340.4
348(17) 0.003460 307.8 342.8
321(16) 0.00391 307.8 345.4
344(17) 0.003460 307.7 348.1
346(17) 0.003460 307.7 350.7
368(17) 0.003460 307.7 353.1
359(17) 0.003460 307.7 355.2
329(16) 0.00391 307.6 356.9
358(17) 0.003460 307.6 358.2
352(17) 0.003460 307.6 359.3
366(17) 0.003460 307.6 360.4
334(16) 0.00391 307.6 361.6
337(17) 0.003460 307.5 363.1
365(17) 0.003460 307.5 364.7
365(17) 0.003460 307.5 366.5
338(17) 0.003460 307.5 368.2
358(17) 0.003460 307.4 369.6
369(17) 0.003460 307.4 370.7
392(18) 0.003086 307.4 371.1
410(18) 0.003086 307.4 370.9
371(17) 0.003460 307.3 370.1
339(17) 0.003460 307.3 368.7
379(18) 0.003086 307.3 366.9
402(18) 0.003086 307.3 365.0
375(17) 0.003460 307.3 363.2
392(18) 0.003086 307.2 361.7
373(17) 0.003460 307.2 360.8
389(18) 0.003086 307.2 360.6
403(18) 0.003086 307.2 361.0
389(18) 0.003086 307.1 362.2
374(17) 0.003460 307.1 364.0
378(18) 0.003086 307.1 366.4
366(17) 0.003460 307.1 369.1
379(18) 0.003086 307.0 371.8
382(18) 0.003086 307.0 374.3
371(17) 0.003460 307.0 376.0
419(18) 0.003086 307.0 376.6
373(17) 0.003460 306.9 375.9
363(17) 0.003460 306.9 374.1
362(17) 0.003460 306.9 371.4
391(18) 0.003086 306.9 368.1
376(17) 0.003460 306.9 364.8
353(17) 0.003460 306.8 361.6
381(18) 0.003086 306.8 358.7
365(17) 0.003460 306.8 356.4
384(18) 0.003086 306.8 354.4
359(17) 0.003460 306.7 352.9
319(16) 0.00391 306.7 351.6
371(18) 0.003086 306.7 350.4
358(17) 0.003460 306.7 349.2
369(17) 0.003460 306.6 347.8
337(17) 0.003460 306.6 346.1
329(17) 0.003460 306.6 344.2
319(16) 0.00391 306.6 342.3
365(17) 0.003460 306.5 340.3
350(17) 0.003460 306.5 338.4
347(17) 0.003460 306.5 336.7
335(17) 0.003460 306.5 335.2
342(17) 0.003460 306.4 333.9
331(17) 0.003460 306.4 333.0
329(17) 0.003460 306.4 332.3
344(17) 0.003460 306.4 331.9
340(17) 0.003460 306.3 331.8
315(16) 0.00391 306.3 331.9
317(16) 0.00391 306.3 332.3
337(17) 0.003460 306.3 333.1
309(16) 0.00391 306.2 334.1
339(17) 0.003460 306.2 335.4
340(17) 0.003460 306.2 337.0
307(16) 0.00391 306.2 339.0
320(16) 0.00391 306.1 341.2
342(17) 0.003460 306.1 343.7
353(17) 0.003460 306.1 346.3
344(17) 0.003460 306.1 349.1
366(17) 0.003460 306.0 351.9
337(17) 0.003460 306.0 354.6
365(17) 0.003460 306.0 357.2
355(17) 0.003460 306.0 359.5
336(17) 0.003460 305.9 361.4
339(17) 0.003460 305.9 363.0
352(17) 0.003460 305.9 363.9
369(17) 0.003460 305.9 364.1
364(17) 0.003460 305.8 363.7
370(17) 0.003460 305.8 362.7
343(17) 0.003460 305.8 361.5
366(17) 0.003460 305.8 360.2
343(17) 0.003460 305.7 359.0
359(17) 0.003460 305.7 358.1
355(17) 0.003460 305.7 357.6
383(18) 0.003086 305.7 357.4
362(17) 0.003460 305.6 357.4
331(17) 0.003460 305.6 357.7
362(17) 0.003460 305.6 358.0
372(18) 0.003086 305.6 358.2
368(17) 0.003460 305.5 358.3
354(17) 0.003460 305.5 358.1
334(17) 0.003460 305.5 357.9
378(18) 0.003086 305.4 357.5
368(17) 0.003460 305.4 357.2
333(17) 0.003460 305.4 357.1
340(17) 0.003460 305.4 357.2
337(17) 0.003460 305.3 357.7
354(17) 0.003460 305.3 358.6
368(17) 0.003460 305.3 359.9
367(17) 0.003460 305.3 361.6
367(17) 0.003460 305.2 363.5
366(17) 0.003460 305.2 365.5
367(17) 0.003460 305.2 367.5
406(18) 0.003086 305.1 369.2
384(18) 0.003086 305.1 370.5
355(17) 0.003460 305.1 371.1
356(17) 0.003460 305.1 371.0
389(18) 0.003086 305.0 370.2
327(16) 0.00391 305.0 368.8
355(17) 0.003460 305.0 367.0
342(17) 0.003460 304.9 365.1
362(17) 0.003460 304.9 363.2
371(18) 0.003086 304.9 361.5
320(16) 0.00391 304.9 360.2
369(17) 0.003460 304.8 359.1
373(18) 0.003086 304.8 358.5
379(18) 0.003086 304.8 358.3
366(17) 0.003460 304.7 358.6
370(17) 0.003460 304.7 359.4
355(17) 0.003460 304.7 360.8
369(17) 0.003460 304.7 362.9
354(17) 0.003460 304.6 365.5
357(17) 0.003460 304.6 368.8
359(17) 0.003460 304.6 372.7
383(18) 0.003086 304.5 376.9
360(17) 0.003460 304.5 381.3
368(17) 0.003460 304.5 385.6
370(18) 0.003086 304.5 389.5
380(18) 0.003086 304.4 392.6
379(18) 0.003086 304.4 394.4
376(18) 0.003086 304.4 395.0
390(18) 0.003086 304.3 394.3
356(17) 0.003460 304.3 392.4
386(18) 0.003086 304.3 389.9
378(18) 0.003086 304.2 386.9
368(17) 0.003460 304.2 383.8
407(18) 0.003086 304.2 380.8
391(18) 0.003086 304.2 378.0
387(17) 0.003460 304.1 375.6
375(17) 0.003460 304.1 373.5
386(17) 0.003460 304.1 371.8
373(17) 0.003460 304.0 370.6
378(17) 0.003460 304.0 369.7
374(17) 0.003460 304.0 369.2
353(16) 0.00391 303.9 369.1
363(17) 0.003460 303.9 369.4
359(17) 0.003460 303.9 370.1
394(17) 0.003460 303.9 370.9
379(17) 0.003460 303.8 371.8
346(16) 0.00391 303.8 372.7
369(17) 0.003460 303.8 373.5
378(17) 0.003460 303.7 374.1
403(18) 0.003086 303.7 374.5
354(16) 0.00391 303.7 374.8
381(17) 0.003460 303.6 375.0
381(17) 0.003460 303.6 375.3
395(17) 0.003460 303.6 375.8
380(17) 0.003460 303.5 376.4
358(17) 0.003460 303.5 377.0
381(17) 0.003460 303.5 377.7
388(17) 0.003460 303.4 378.4
388(17) 0.003460 303.4 379.1
397(17) 0.003460 303.4 379.9
398(17) 0.003460 303.3 380.9
402(18) 0.003086 303.3 382.3
390(17) 0.003460 303.3 384.2
407(18) 0.003086 303.2 386.5
378(17) 0.003460 303.2 389.4
400(17) 0.003460 303.2 392.6
406(18) 0.003086 303.1 396.3
411(18) 0.003086 303.1 400.0
438(18) 0.003086 303.1 403.6
409(18) 0.003086 303.0 406.8
408(18) 0.003086 303.0 409.2
417(18) 0.003086 303.0 410.6
414(18) 0.003086 302.9 410.8
392(17) 0.003460 302.9 409.7
392(17) 0.003460 302.9 407.3
387(17) 0.003460 302.8 403.8
388(17) 0.003460 302.8 399.5
403(18) 0.003086 302.8 394.6
381(17) 0.003460 302.7 389.5
391(17) 0.003460 302.7 384.5
375(17) 0.003460 302.7 379.7
378(17) 0.003460 302.6 375.3
353(16) 0.00391 302.6 371.5
377(17) 0.003460 302.6 368.2
360(17) 0.003460 302.5 365.4
353(16) 0.00391 302.5 363.2
372(17) 0.003460 302.5 361.4
396(17) 0.003460 302.4 360.0
393(17) 0.003460 302.4 358.9
365(17) 0.003460 302.4 357.9
368(17) 0.003460 302.3 357.0
370(17) 0.003460 302.3 355.8
340(16) 0.00391 302.3 354.4
364(17) 0.003460 302.2 352.7
351(16) 0.00391 302.2 350.7
330(16) 0.00391 302.1 348.5
337(16) 0.00391 302.1 346.3
351(16) 0.00391 302.1 344.0
347(16) 0.00391 302.0 341.8
364(17) 0.003460 302.0 339.8
332(16) 0.00391 302.0 337.9
333(16) 0.00391 301.9 336.3
328(16) 0.00391 301.9 334.9
341(16) 0.00391 301.9 333.7
317(16) 0.00391 301.8 332.7
315(16) 0.00391 301.8 331.8
327(16) 0.00391 301.8 331.1
347(16) 0.00391 301.7 330.5
334(16) 0.00391 301.7 329.9
331(16) 0.00391 301.6 329.4
344(16) 0.00391 301.6 328.9
362(17) 0.003460 301.6 328.4
357(17) 0.003460 301.5 328.0
328(16) 0.00391 301.5 327.7
341(16) 0.00391 301.5 327.4
317(16) 0.00391 301.4 327.3
319(16) 0.00391 301.4 327.2
341(16) 0.00391 301.3 327.2
325(16) 0.00391 301.3 327.4
347(16) 0.00391 301.3 327.6
346(16) 0.00391 301.2 328.0
337(16) 0.00391 301.2 328.5
343(16) 0.00391 301.2 329.2
305(15) 0.00444 301.1 330.1
341(16) 0.00391 301.1 331.2
318(16) 0.00391 301.0 332.4
333(16) 0.00391 301.0 334.0
349(16) 0.00391 301.0 335.7
318(16) 0.00391 300.9 337.7
331(16) 0.00391 300.9 340.0
338(16) 0.00391 300.8 342.5
334(16) 0.00391 300.8 345.2
364(17) 0.003460 300.8 348.0
356(16) 0.00391 300.7 351.0
323(22) 0.002066 300.7 354.0
356(17) 0.003460 300.7 357.1
367(17) 0.003460 300.6 360.2
363(17) 0.003460 300.6 363.2
386(17) 0.003460 300.5 366.2
391(17) 0.003460 300.5 369.1
371(17) 0.003460 300.5 372.1
397(17) 0.003460 300.4 375.1
382(17) 0.003460 300.4 377.9
379(17) 0.003460 300.3 380.6
381(17) 0.003460 300.3 383.0
382(17) 0.003460 300.3 385.0
371(17) 0.003460 300.2 386.3
368(17) 0.003460 300.2 387.1
371(17) 0.003460 300.1 387.1
408(18) 0.003086 300.1 386.4
382(17) 0.003460 300.1 385.0
364(17) 0.003460 300.0 383.1
387(17) 0.003460 300.0 380.7
390(17) 0.003460 299.9 378.0
394(17) 0.003460 299.9 375.1
356(17) 0.003460 299.9 372.0
364(17) 0.003460 299.8 368.8
356(17) 0.003460 299.8 365.6
360(17) 0.003460 299.7 362.5
352(17) 0.003460 299.7 359.4
336(16) 0.00391 299.7 356.5
339(16) 0.00391 299.6 353.6
342(16) 0.00391 299.6 351.0
361(17) 0.003460 299.5 348.7
358(17) 0.003460 299.5 346.6
334(16) 0.00391 299.5 344.7
335(16) 0.00391 299.4 343.3
330(16) 0.00391 299.4 342.1
346(16) 0.00391 299.3 341.4
348(16) 0.00391 299.3 340.9
368(17) 0.003460 299.2 340.8
367(17) 0.003460 299.2 341.1
373(17) 0.003460 299.2 341.6
356(17) 0.003460 299.1 342.4
356(17) 0.003460 299.1 343.5
354(17) 0.003460 299.0 344.6
349(16) 0.00391 299.0 345.9
351(16) 0.00391 299.0 347.1
350(16) 0.00391 298.9 348.3
372(17) 0.003460 298.9 349.4
387(17) 0.003460 298.8 350.3
354(17) 0.003460 298.8 351.0
356(17) 0.003460 298.7 351.7
356(17) 0.003460 298.7 352.4
371(17) 0.003460 298.7 353.0
352(17) 0.003460 298.6 353.7
358(17) 0.003460 298.6 354.5
371(17) 0.003460 298.5 355.3
352(16) 0.00391 298.5 356.0
352(17) 0.003460 298.5 356.7
346(16) 0.00391 298.4 357.3
358(17) 0.003460 298.4 357.8
351(16) 0.00391 298.3 358.2
343(16) 0.00391 298.3 358.5
367(17) 0.003460 298.2 358.7
369(17) 0.003460 298.2 359.0
334(16) 0.00391 298.2 359.3
351(16) 0.00391 298.1 359.7
367(17) 0.003460 298.1 360.1
374(17) 0.003460 298.0 360.5
377(17) 0.003460 298.0 360.7
377(17) 0.003460 297.9 360.8
363(17) 0.003460 297.9 360.8
357(17) 0.003460 297.9 360.6
351(16) 0.00391 297.8 360.4
344(16) 0.00391 297.8 360.2
351(16) 0.00391 297.7 360.1
358(17) 0.003460 297.7 360.1
366(17) 0.003460 297.6 360.4
363(17) 0.003460 297.6 360.9
377(17) 0.003460 297.6 361.6
364(17) 0.003460 297.5 362.5
353(17) 0.003460 297.5 363.6
366(17) 0.003460 297.4 365.0
383(17) 0.003460 297.4 366.5
390(17) 0.003460 297.3 368.3
376(17) 0.003460 297.3 370.1
357(17) 0.003460 297.3 372.1
380(17) 0.003460 297.2 374.0
376(17) 0.003460 297.2 375.8
367(17) 0.003460 297.1 377.4
393(17) 0.003460 297.1 378.6
368(17) 0.003460 297.0 379.5
379(17) 0.003460 297.0 379.9
364(17) 0.003460 296.9 379.8
359(17) 0.003460 296.9 379.4
384(17) 0.003460 296.9 378.5
372(17) 0.003460 296.8 377.4
362(17) 0.003460 296.8 376.1
364(17) 0.003460 296.7 374.4
386(17) 0.003460 296.7 372.5
357(17) 0.003460 296.6 370.3
359(17) 0.003460 296.6 367.9
367(17) 0.003460 296.6 365.3
354(17) 0.003460 296.5 362.6
358(17) 0.003460 296.5 359.8
367(17) 0.003460 296.4 357.1
355(17) 0.003460 296.4 354.6
349(17) 0.003460 296.3 352.2
353(17) 0.003460 296.3 350.2
338(16) 0.00391 296.2 348.5
359(17) 0.003460 296.2 347.2
345(16) 0.00391 296.2 346.3
351(17) 0.003460 296.1 345.8
358(17) 0.003460 296.1 345.6
330(16) 0.00391 296.0 345.8
354(17) 0.003460 296.0 346.4
372(17) 0.003460 295.9 347.2
381(17) 0.003460 295.9 348.3
352(17) 0.003460 295.9 349.5
337(16) 0.00391 295.8 350.7
347(16) 0.00391 295.8 351.9
364(17) 0.003460 295.7 352.9
349(17) 0.003460 295.7 353.7
337(16) 0.00391 295.6 354.0
363(17) 0.003460 295.6 354.0
344(16) 0.00391 295.5 353.6
331(16) 0.00391 295.5 352.9
354(17) 0.003460 295.5 352.0
341(16) 0.00391 295.4 350.9
335(16) 0.00391 295.4 349.7
320(16) 0.00391 295.3 348.4
336(16) 0.00391 295.3 347.2
327(16) 0.00391 295.2 345.9
330(16) 0.00391 295.2 344.6
330(16) 0.00391 295.2 343.4
335(16) 0.00391 295.1 342.2
342(16) 0.00391 295.1 341.0
353(17) 0.003460 295.0 339.8
351(17) 0.003460 295.0 338.6
334(16) 0.00391 294.9 337.5
347(16) 0.00391 294.9 336.5
336(16) 0.00391 294.8 335.5
335(16) 0.00391 294.8 334.6
335(16) 0.00391 294.8 333.8
332(16) 0.00391 294.7 333.1
335(16) 0.00391 294.7 332.4
335(16) 0.00391 294.6 331.7
332(16) 0.00391 294.6 331.1
314(16) 0.00391 294.5 330.4
312(16) 0.00391 294.5 329.7
329(16) 0.00391 294.5 328.9
319(16) 0.00391 294.4 328.0
324(16) 0.00391 294.4 327.1
342(16) 0.00391 294.3 326.3
322(16) 0.00391 294.3 325.4
326(16) 0.00391 294.2 324.6
312(16) 0.00391 294.2 323.9
303(15) 0.00444 294.2 323.2
305(16) 0.00391 294.1 322.7
313(16) 0.00391 294.1 322.3
315(16) 0.00391 294.0 322.1
307(16) 0.00391 294.0 322.0
299(15) 0.00444 293.9 322.1
326(16) 0.00391 293.9 322.3
336(16) 0.00391 293.9 322.7
331(16) 0.00391 293.8 323.2
350(17) 0.003460 293.8 323.9
351(17) 0.003460 293.7 324.7
333(16) 0.00391 293.7 325.7
335(16) 0.00391 293.6 326.8
346(16) 0.00391 293.6 328.1
347(16) 0.00391 293.6 329.4
330(16) 0.00391 293.5 330.9
319(16) 0.00391 293.5 332.3
345(16) 0.00391 293.4 333.9
366(17) 0.003460 293.4 335.4
358(17) 0.003460 293.3 336.9
327(16) 0.00391 293.3 338.5
345(16) 0.00391 293.3 340.0
342(16) 0.00391 293.2 341.4
341(16) 0.00391 293.2 342.8
348(17) 0.003460 293.1 344.2
348(17) 0.003460 293.1 345.5
369(17) 0.003460 293.0 346.8
347(16) 0.00391 293.0 348.1
350(17) 0.003460 293.0 349.5
347(16) 0.00391 292.9 350.9
364(17) 0.003460 292.9 352.4
392(17) 0.003460 292.8 354.0
362(17) 0.003460 292.8 355.8
382(17) 0.003460 292.8 357.8
362(17) 0.003460 292.7 359.9
360(17) 0.003460 292.7 362.1
395(18) 0.003086 292.6 364.3
392(17) 0.003460 292.6 366.6
364(17) 0.003460 292.6 368.7
370(17) 0.003460 292.5 370.7
383(17) 0.003460 292.5 372.3
374(17) 0.003460 292.4 373.7
382(17) 0.003460 292.4 374.6
354(17) 0.003460 292.4 375.1
349(17) 0.003460 292.3 375.3
366(17) 0.003460 292.3 375.0
380(17) 0.003460 292.2 374.4
377(18) 0.003086 292.2 373.4
350(17) 0.003460 292.2 372.1
345(17) 0.003460 292.1 370.6
367(17) 0.003460 292.1 368.8
345(17) 0.003460 292.0 367.0
334(17) 0.003460 292.0 365.0
338(17) 0.003460 292.0 363.0
330(17) 0.003460 291.9 361.1
334(17) 0.003460 291.9 359.4
334(17) 0.003460 291.8 357.8
338(17) 0.003460 291.8 356.4
351(17) 0.003460 291.8 355.1
323(16) 0.00391 291.7 354.0
329(17) 0.003460 291.7 353.1
334(17) 0.003460 291.6 352.2
338(17) 0.003460 291.6 351.4
326(17) 0.003460 291.6 350.6
324(16) 0.00391 291.5 349.7
338(17) 0.003460 291.5 348.9
343(17) 0.003460 291.4 348.0
366(17) 0.003460 291.4 347.2
339(17) 0.003460 291.4 346.4
337(17) 0.003460 291.3 345.8
328(17) 0.003460 291.3 345.2
352(17) 0.003460 291.3 344.9
356(17) 0.003460 291.2 344.7
345(17) 0.003460 291.2 344.7
331(17) 0.003460 291.1 344.9
351(17) 0.003460 291.1 345.3
345(17) 0.003460 291.1 345.9
343(17) 0.003460 291.0 346.7
347(17) 0.003460 291.0 347.6
327(17) 0.003460 291.0 348.7
359(17) 0.003460 290.9 349.8
359(17) 0.003460 290.9 350.9
384(18) 0.003086 290.9 352.0
353(17) 0.003460 290.8 353.0
358(17) 0.003460 290.8 353.9
331(17) 0.003460 290.7 354.6
324(16) 0.00391 290.7 355.2
359(17) 0.003460 290.7 355.7
344(17) 0.003460 290.6 356.1
368(17) 0.003460 290.6 356.4
383(18) 0.003086 290.6 356.7
370(18) 0.003086 290.5 357.0
375(18) 0.003086 290.5 357.3
373(18) 0.003086 290.5 357.7
358(17) 0.003460 290.4 358.1
365(17) 0.003460 290.4 358.5
389(18) 0.003086 290.4 358.8
357(17) 0.003460 290.3 359.1
341(17) 0.003460 290.3 359.3
350(17) 0.003460 290.3 359.3
358(17) 0.003460 290.2 359.3
365(17) 0.003460 290.2 359.1
366(17) 0.003460 290.2 358.8
380(18) 0.003086 290.1 358.4
365(17) 0.003460 290.1 357.9
352(17) 0.003460 290.1 357.3
335(17) 0.003460 290.0 356.6
355(17) 0.003460 290.0 355.8
357(17) 0.003460 290.0 355.0
365(17) 0.003460 289.9 354.2
351(17) 0.003460 289.9 353.3
334(17) 0.003460 289.9 352.4
350(17) 0.003460 289.8 351.6
363(17) 0.003460 289.8 350.8
369(18) 0.003086 289.8 350.1
342(17) 0.003460 289.7 349.4
338(17) 0.003460 289.7 348.8
346(17) 0.003460 289.7 348.2
346(17) 0.003460 289.6 347.7
335(17) 0.003460 289.6 347.2
351(17) 0.003460 289.6 346.6
359(17) 0.003460 289.5 346.1
347(17) 0.003460 289.5 345.4
324(16) 0.00391 289.5 344.8
347(17) 0.003460 289.4 344.0
363(17) 0.003460 289.4 343.2
343(17) 0.003460 289.4 342.3
358(17) 0.003460 289.4 341.4
339(17) 0.003460 289.3 340.6
332(17) 0.003460 289.3 339.7
319(16) 0.00391 289.3 338.9
319(16) 0.00391 289.2 338.2
351(17) 0.003460 289.2 337.6
336(17) 0.003460 289.2 337.0
324(16) 0.00391 289.2 336.6
338(17) 0.003460 289.1 336.4
329(17) 0.003460 289.1 336.2
333(17) 0.003460 289.1 336.2
339(17) 0.003460 289.0 336.4
339(17) 0.003460 289.0 336.6
352(17) 0.003460 289.0 336.9
364(17) 0.003460 289.0 337.4
335(17) 0.003460 288.9 337.9
337(17) 0.003460 288.9 338.4
340(17) 0.003460 288.9 339.0
340(17) 0.003460 288.8 339.6
344(14) 0.00510 288.8 340.2
334(17) 0.003460 288.8 340.7
365(18) 0.003086 288.8 341.2
320(17) 0.003460 288.7 341.5
352(17) 0.003460 288.7 341.7
316(17) 0.003460 288.7 341.7
342(17) 0.003460 288.7 341.5
351(17) 0.003460 288.6 341.1
349(17) 0.003460 288.6 340.5
344(17) 0.003460 288.6 339.7
327(17) 0.003460 288.6 338.8
304(16) 0.00391 288.5 337.8
355(18) 0.003086 288.5 336.8
336(17) 0.003460 288.5 335.7
329(17) 0.003460 288.5 334.8
306(16) 0.00391 288.4 334.0
349(17) 0.003460 288.4 333.3
343(17) 0.003460 288.4 332.7
334(17) 0.003460 288.4 332.3
318(17) 0.003460 288.3 332.1
308(16) 0.00391 288.3 332.1
341(17) 0.003460 288.3 332.2
322(17) 0.003460 288.3 332.5
315(17) 0.003460 288.3 332.9
375(18) 0.003086 288.2 333.4
333(17) 0.003460 288.2 333.9
343(17) 0.003460 288.2 334.5
365(18) 0.003086 288.2 335.0
337(17) 0.003460 288.1 335.5
353(18) 0.003086 288.1 335.9
328(17) 0.003460 288.1 336.2
366(18) 0.003086 288.1 336.3
364(18) 0.003086 288.1 336.4
342(17) 0.003460 288.0 336.3
347(17) 0.003460 288.0 336.3
358(18) 0.003086 288.0 336.2
335(17) 0.003460 288.0 336.1
360(18) 0.003086 288.0 336.1
348(17) 0.003460 287.9 336.2
323(17) 0.003460 287.9 336.4
339(17) 0.003460 287.9 336.7
333(17) 0.003460 287.9 337.1
317(17) 0.003460 287.9 337.6
319(17) 0.003460 287.8 338.1
351(17) 0.003460 287.8 338.7
310(16) 0.00391 287.8 339.2
345(17) 0.003460 287.8 339.6
326(17) 0.003460 287.8 339.9
295(16) 0.00391 287.7 340.0
323(17) 0.003460 287.7 339.9
312(17) 0.003460 287.7 339.5
333(17) 0.003460 287.7 338.9
332(17) 0.003460 287.7 338.1
299(16) 0.00391 287.7 337.1
302(16) 0.00391 287.6 335.9
320(17) 0.003460 287.6 334.6
323(17) 0.003460 287.6 333.2
371(18) 0.003086 287.6 331.8
350(17) 0.003460 287.6 330.4
324(17) 0.003460 287.6 329.1
331(17) 0.003460 287.5 327.8
318(17) 0.003460 287.5 326.6
349(17) 0.003460 287.5 325.5
306(16) 0.00391 287.5 324.5
323(17) 0.003460 287.5 323.7
321(17) 0.003460 287.5 323.0
303(16) 0.00391 287.5 322.4
311(16) 0.00391 287.4 322.0
339(17) 0.003460 287.4 321.7
311(17) 0.003460 287.4 321.6
311(17) 0.003460 287.4 321.6
310(16) 0.00391 287.4 321.8
325(17) 0.003460 287.4 322.1
326(17) 0.003460 287.4 322.6
306(16) 0.00391 287.3 323.1
303(16) 0.00391 287.3 323.9
316(17) 0.003460 287.3 324.7
326(17) 0.003460 287.3 325.7
352(17) 0.003460 287.3 326.8
349(17) 0.003460 287.3 328.0
326(17) 0.003460 287.3 329.4
321(17) 0.003460 287.3 330.9
316(17) 0.003460 287.3 332.5
360(18) 0.003086 287.2 334.2
318(17) 0.003460 287.2 336.0
327(17) 0.003460 287.2 337.9
343(17) 0.003460 287.2 340.0
326(17) 0.003460 287.2 342.1
382(18) 0.003086 287.2 344.2
386(18) 0.003086 287.2 346.5
324(17) 0.003460 287.2 348.7
375(18) 0.003086 287.2 350.9
372(18) 0.003086 287.1 353.0
330(17) 0.003460 287.1 355.0
344(17) 0.003460 287.1 356.9
360(18) 0.003086 287.1 358.6
357(18) 0.003086 287.1 360.0
383(18) 0.003086 287.1 361.2
378(18) 0.003086 287.1 362.0
342(17) 0.003460 287.1 362.5
355(18) 0.003086 287.1 362.7
369(17) 0.003460 287.1 362.5
362(17) 0.003460 287.1 362.1
351(17) 0.003460 287.1 361.4
375(18) 0.003086 287.1 360.6
328(16) 0.00391 287.0 359.6
351(17) 0.003460 287.0 358.5
373(17) 0.003460 287.0 357.4
372(17) 0.003460 287.0 356.4
350(17) 0.003460 287.0 355.4
364(17) 0.003460 287.0 354.6
347(17) 0.003460 287.0 354.0
352(17) 0.003460 287.0 353.4
372(17) 0.003460 287.0 353.1
350(17) 0.003460 287.0 352.9
350(17) 0.003460 287.0 352.8
327(16) 0.00391 287.0 352.8
385(18) 0.003086 287.0 352.9
344(17) 0.003460 287.0 353.0
373(17) 0.003460 287.0 353.1
367(17) 0.003460 287.0 353.2
347(17) 0.003460 287.0 353.2
341(17) 0.003460 287.0 353.0
374(18) 0.003086 286.9 352.8
371(17) 0.003460 286.9 352.5
356(17) 0.003460 286.9 352.0
355(17) 0.003460 286.9 351.4
330(16) 0.00391 286.9 350.7
330(16) 0.00391 286.9 350.0
342(17) 0.003460 286.9 349.1
367(17) 0.003460 286.9 348.2
343(17) 0.003460 286.9 347.3
355(17) 0.003460 286.9 346.4
334(17) 0.003460 286.9 345.4
340(17) 0.003460 286.9 344.5
354(17) 0.003460 286.9 343.5
317(16) 0.00391 286.9 342.6
371(17) 0.003460 286.9 341.7
340(17) 0.003460 286.9 340.9
359(17) 0.003460 286.9 340.1
337(17) 0.003460 286.9 339.3
317(16) 0.00391 286.9 338.6
316(16) 0.00391 286.9 338.0
318(16) 0.00391 286.9 337.5
319(16) 0.00391 286.9 337.1
352(17) 0.003460 286.9 336.7
338(17) 0.003460 286.9 336.5
334(17) 0.003460 286.9 336.4
349(17) 0.003460 286.9 336.5
344(17) 0.003460 286.9 336.6
325(16) 0.00391 286.9 336.9
355(17) 0.003460 286.9 337.2
313(16) 0.00391 286.9 337.6
325(16) 0.00391 286.9 338.0
343(17) 0.003460 286.9 338.4
335(17) 0.003460 286.9 338.9
368(17) 0.003460 286.9 339.3
358(17) 0.003460 286.9 339.7
364(17) 0.003460 286.9 340.0
339(17) 0.003460 286.9 340.3
360(17) 0.003460 286.9 340.6
340(17) 0.003460 286.9 340.8
347(17) 0.003460 286.9 341.0
342(17) 0.003460 286.9 341.3
339(17) 0.003460 286.9 341.5
359(17) 0.003460 286.9 341.8
355(17) 0.003460 286.9 342.1
338(17) 0.003460 286.9 342.5
325(16) 0.00391 286.9 342.9
363(17) 0.003460 286.9 343.5
359(17) 0.003460 287.0 344.1
352(17) 0.003460 287.0 344.8
345(17) 0.003460 287.0 345.6
339(17) 0.003460 287.0 346.5
340(17) 0.003460 287.0 347.5
354(17) 0.003460 287.0 348.6
323(16) 0.00391 287.0 349.8
347(17) 0.003460 287.0 351.1
333(17) 0.003460 287.0 352.4
360(17) 0.003460 287.0 353.7
350(17) 0.003460 287.0 355.0
363(17) 0.003460 287.0 356.3
361(17) 0.003460 287.0 357.6
356(17) 0.003460 287.0 358.7
341(17) 0.003460 287.0 359.8
371(17) 0.003460 287.0 360.6
362(17) 0.003460 287.0 361.3
346(17) 0.003460 287.0 361.7
372(17) 0.003460 287.0 362.0
364(17) 0.003460 287.0 362.0
366(17) 0.003460 287.0 361.7
365(17) 0.003460 287.1 361.2
370(17) 0.003460 287.1 360.6
371(17) 0.003460 287.1 359.7
341(17) 0.003460 287.1 358.7
360(17) 0.003460 287.1 357.6
335(17) 0.003460 287.1 356.3
368(17) 0.003460 287.1 355.0
373(17) 0.003460 287.1 353.6
347(17) 0.003460 287.1 352.2
339(24) 0.001736 287.1 350.8
353(17) 0.003460 287.1 349.5
372(17) 0.003460 287.1 348.3
367(17) 0.003460 287.1 347.1
346(17) 0.003460 287.1 346.0
345(17) 0.003460 287.2 345.1
339(16) 0.00391 287.2 344.2
328(16) 0.00391 287.2 343.5
346(17) 0.003460 287.2 342.9
339(16) 0.00391 287.2 342.4
321(16) 0.00391 287.2 342.0
385(17) 0.003460 287.2 341.7
369(17) 0.003460 287.2 341.5
348(17) 0.003460 287.2 341.3
318(16) 0.00391 287.2 341.2
336(16) 0.00391 287.2 341.1
350(17) 0.003460 287.2 341.0
344(17) 0.003460 287.3 341.0
346(17) 0.003460 287.3 340.9
350(17) 0.003460 287.3 340.8
332(16) 0.00391 287.3 340.8
347(17) 0.003460 287.3 340.7
335(16) 0.00391 287.3 340.6
343(17) 0.003460 287.3 340.5
317(16) 0.00391 287.3 340.4
356(17) 0.003460 287.3 340.3
332(16) 0.00391 287.3 340.1
349(17) 0.003460 287.3 339.9
353(17) 0.003460 287.4 339.6
342(17) 0.003460 287.4 339.2
336(16) 0.00391 287.4 338.8
338(16) 0.00391 287.4 338.2
329(16) 0.00391 287.4 337.7
327(16) 0.00391 287.4 337.0
326(16) 0.00391 287.4 336.3
325(16) 0.00391 287.4 335.6
342(17) 0.003460 287.4 334.8
334(16) 0.00391 287.4 334.0
319(16) 0.00391 287.5 333.2
326(16) 0.00391 287.5 332.5
331(16) 0.00391 287.5 331.7
307(16) 0.00391 287.5 331.0
305(16) 0.00391 287.5 330.3
339(16) 0.00391 287.5 329.6
324(16) 0.00391 287.5 329.1
344(17) 0.003460 287.5 328.6
328(16) 0.00391 287.5 328.2
335(16) 0.00391 287.5 327.8
346(17) 0.003460 287.6 327.6
341(17) 0.003460 287.6 327.4
324(16) 0.00391 287.6 327.3
332(16) 0.00391 287.6 327.3
349(17) 0.003460 287.6 327.4
323(16) 0.00391 287.6 327.5
341(16) 0.00391 287.6 327.7
327(16) 0.00391 287.6 327.9
328(16) 0.00391 287.6 328.2
353(17) 0.003460 287.7 328.5
304(16) 0.00391 287.7 328.9
323(16) 0.00391 287.7 329.3
337(16) 0.00391 287.7 329.7
345(17) 0.003460 287.7 330.1
339(16) 0.00391 287.7 330.5
329(16) 0.00391 287.7 331.0
354(17) 0.003460 287.7 331.4
342(17) 0.003460 287.7 331.9
337(16) 0.00391 287.8 332.3
356(17) 0.003460 287.8 332.7
335(16) 0.00391 287.8 333.1
358(17) 0.003460 287.8 333.5
354(17) 0.003460 287.8 333.9
345(17) 0.003460 287.8 334.2
330(16) 0.00391 287.8 334.5
318(16) 0.00391 287.8 334.7
327(16) 0.00391 287.8 334.9
327(16) 0.00391 287.9 335.0
340(16) 0.00391 287.9 335.0
354(17) 0.003460 287.9 335.0
341(17) 0.003460 287.9 334.9
337(16) 0.00391 287.9 334.7
314(16) 0.00391 287.9 334.5
362(17) 0.003460 287.9 334.2
321(16) 0.00391 287.9 333.9
330(16) 0.00391 288.0 333.5
305(16) 0.00391 288.0 333.1
342(17) 0.003460 288.0 332.7
329(16) 0.00391 288.0 332.4
332(16) 0.00391 288.0 332.0
307(16) 0.00391 288.0 331.8
341(16) 0.00391 288.0 331.5
327(16) 0.00391 288.0 331.4
358(17) 0.003460 288.1 331.3
370(17) 0.003460 288.1 331.4
352(17) 0.003460 288.1 331.5
333(16) 0.00391 288.1 331.7
349(17) 0.003460 288.1 332.1
349(17) 0.003460 288.1 332.5
329(16) 0.00391 288.1 333.1
354(17) 0.003460 288.1 333.8
372(17) 0.003460 288.1 334.6
353(14) 0.00510 288.2 335.5
365(17) 0.003460 288.2 336.5
355(17) 0.003460 288.2 337.7
344(17) 0.003460 288.2 338.9
337(16) 0.00391 288.2 340.2
338(16) 0.00391 288.2 341.6
354(17) 0.003460 288.2 343.1
381(17) 0.003460 288.2 344.6
331(16) 0.00391 288.3 346.2
336(16) 0.00391 288.3 347.8
346(17) 0.003460 288.3 349.4
370(17) 0.003460 288.3 351.0
364(17) 0.003460 288.3 352.6
351(17) 0.003460 288.3 354.2
360(17) 0.003460 288.3 355.7
376(17) 0.003460 288.3 357.1
370(17) 0.003460 288.4 358.5
362(17) 0.003460 288.4 359.8
358(17) 0.003460 288.4 361.0
357(17) 0.003460 288.4 362.0
363(17) 0.003460 288.4 363.0
359(17) 0.003460 288.4 363.9
368(17) 0.003460 288.4 364.6
380(17) 0.003460 288.4 365.2
356(17) 0.003460 288.5 365.8
370(17) 0.003460 288.5 366.2
392(18) 0.003086 288.5 366.5
377(17) 0.003460 288.5 366.7
405(18) 0.003086 288.5 366.8
370(17) 0.003460 288.5 366.8
369(17) 0.003460 288.5 366.6
373(17) 0.003460 288.5 366.4
374(17) 0.003460 288.6 366.1
382(17) 0.003460 288.6 365.7
374(17) 0.003460 288.6 365.3
369(17) 0.003460 288.6 364.7
372(17) 0.003460 288.6 364.0
344(17) 0.003460 288.6 363.2
343(17) 0.003460 288.6 362.3
337(16) 0.00391 288.7 361.4
360(17) 0.003460 288.7 360.3
379(17) 0.003460 288.7 359.2
333(16) 0.00391 288.7 358.0
359(17) 0.003460 288.7 356.7
383(17) 0.003460 288.7 355.4
364(17) 0.003460 288.7 354.0
352(17) 0.003460 288.7 352.6
357(17) 0.003460 288.8 351.3
349(17) 0.003460 288.8 350.0
335(16) 0.00391 288.8 348.7
356(17) 0.003460 288.8 347.5
353(17) 0.003460 288.8 346.3
344(17) 0.003460 288.8 345.2
343(17) 0.003460 288.8 344.3
348(17) 0.003460 288.9 343.4
357(17) 0.003460 288.9 342.6
319(16) 0.00391 288.9 342.0
345(17) 0.003460 288.9 341.5
338(16) 0.00391 288.9 341.0
340(16) 0.00391 288.9 340.7
351(17) 0.003460 288.9 340.5
347(17) 0.003460 289.0 340.4
328(16) 0.00391 289.0 340.4
333(16) 0.00391 289.0 340.6
336(16) 0.00391 289.0 340.8
340(16) 0.00391 289.0 341.1
362(17) 0.003460 289.0 341.5
343(17) 0.003460 289.1 342.0
338(16) 0.00391 289.1 342.6
343(17) 0.003460 289.1 343.2
348(17) 0.003460 289.1 343.9
354(17) 0.003460 289.1 344.7
326(16) 0.00391 289.1 345.6
351(17) 0.003460 289.1 346.5
370(17) 0.003460 289.2 347.4
342(17) 0.003460 289.2 348.4
364(17) 0.003460 289.2 349.4
384(17) 0.003460 289.2 350.5
345(17) 0.003460 289.2 351.5
350(17) 0.003460 289.2 352.6
364(17) 0.003460 289.3 353.6
327(16) 0.00391 289.3 354.6
351(17) 0.003460 289.3 355.5
350(17) 0.003460 289.3 356.4
362(17) 0.003460 289.3 357.2
349(17) 0.003460 289.4 357.8
347(17) 0.003460 289.4 358.3
355(17) 0.003460 289.4 358.7
333(16) 0.00391 289.4 358.9
373(17) 0.003460 289.4 359.0
326(16) 0.00391 289.4 359.0
352(17) 0.003460 289.5 358.7
347(17) 0.003460 289.5 358.4
352(17) 0.003460 289.5 358.0
361(17) 0.003460 289.5 357.4
351(17) 0.003460 289.5 356.8
341(16) 0.00391 289.6 356.2
357(17) 0.003460 289.6 355.5
357(17) 0.003460 289.6 354.8
352(17) 0.003460 289.6 354.1
365(17) 0.003460 289.6 353.4
358(17) 0.003460 289.7 352.7
350(17) 0.003460 289.7 352.1
361(17) 0.003460 289.7 351.5
348(17) 0.003460 289.7 350.9
320(16) 0.00391 289.8 350.4
360(17) 0.003460 289.8 349.9
359(17) 0.003460 289.8 349.4
361(17) 0.003460 289.8 349.0
346(17) 0.003460 289.9 348.6
339(17) 0.003460 289.9 348.2
338(17) 0.003460 289.9 347.8
333(17) 0.003460 289.9 347.5
336(17) 0.003460 290.0 347.2
323(16) 0.00391 290.0 346.9
345(17) 0.003460 290.0 346.6
341(17) 0.003460 290.0 346.4
349(17) 0.003460 290.1 346.2
363(17) 0.003460 290.1 346.1
353(17) 0.003460 290.1 346.0
334(17) 0.003460 290.1 345.9
338(17) 0.003460 290.2 345.9
349(17) 0.003460 290.2 346.0
328(17) 0.003460 290.2 346.0
346(17) 0.003460 290.3 346.2
321(16) 0.00391 290.3 346.4
344(17) 0.003460 290.3 346.6
367(17) 0.003460 290.4 346.9
343(17) 0.003460 290.4 347.2
350(17) 0.003460 290.4 347.5
357(17) 0.003460 290.5 347.8
357(17) 0.003460 290.5 348.2
377(18) 0.003086 290.5 348.5
337(17) 0.003460 290.6 348.9
328(17) 0.003460 290.6 349.2
324(16) 0.00391 290.6 349.5
339(17) 0.003460 290.7 349.7
368(17) 0.003460 290.7 349.9
333(17) 0.003460 290.7 350.0
362(17) 0.003460 290.8 350.1
333(17) 0.003460 290.8 350.1
353(17) 0.003460 290.9 350.0
352(17) 0.003460 290.9 349.8
337(17) 0.003460 290.9 349.6
359(17) 0.003460 291.0 349.3
346(17) 0.003460 291.0 348.9
353(17) 0.003460 291.1 348.5
341(17) 0.003460 291.1 347.9
320(16) 0.00391 291.1 347.4
337(17) 0.003460 291.2 346.7
335(17) 0.003460 291.2 346.1
306(16) 0.00391 291.3 345.3
334(17) 0.003460 291.3 344.6
357(17) 0.003460 291.4 343.8
342(17) 0.003460 291.4 343.0
356(17) 0.003460 291.5 342.2
333(17) 0.003460 291.5 341.3
324(16) 0.00391 291.6 340.5
314(16) 0.00391 291.6 339.7
336(17) 0.003460 291.7 338.8
331(17) 0.003460 291.7 338.0
324(16) 0.00391 291.8 337.2
311(16) 0.00391 291.8 336.4
317(16) 0.00391 291.9 335.6
341(17) 0.003460 292.0 334.9
341(17) 0.003460 292.0 334.2
327(17) 0.003460 292.1 333.5
332(17) 0.003460 292.1 332.8
340(17) 0.003460 292.2 332.2
332(17) 0.003460 292.3 331.6
309(16) 0.00391 292.3 331.1
336(17) 0.003460 292.4 330.6
347(17) 0.003460 292.5 330.1
327(17) 0.003460 292.5 329.7
312(16) 0.00391 292.6 329.3
306(16) 0.00391 292.7 328.9
316(16) 0.00391 292.7 328.6
311(16) 0.00391 292.8 328.3
336(17) 0.003460 292.9 328.0
316(16) 0.00391 292.9 327.8
315(16) 0.00391 293.0 327.6
339(17) 0.003460 293.1 327.5
312(16) 0.00391 293.2 327.3
323(16) 0.00391 293.2 327.2
339(17) 0.003460 293.3 327.2
333(17) 0.003460 293.4 327.2
354(17) 0.003460 293.5 327.2
350(17) 0.003460 293.6 327.2
338(17) 0.003460 293.7 327.3
314(16) 0.00391 293.7 327.4
316(16) 0.00391 293.8 327.6
317(16) 0.00391 293.9 327.8
345(17) 0.003460 294.0 328.0
307(16) 0.00391 294.1 328.3
297(16) 0.00391 294.2 328.6
307(16) 0.00391 294.3 329.0
326(16) 0.00391 294.4 329.4
327(17) 0.003460 294.5 329.9
319(16) 0.00391 294.6 330.4
340(17) 0.003460 294.7 331.0
343(17) 0.003460 294.8 331.6
330(17) 0.003460 294.9 332.3
322(16) 0.00391 295.0 333.0
345(17) 0.003460 295.1 333.8
330(17) 0.003460 295.2 334.6
324(17) 0.003460 295.3 335.5
336(17) 0.003460 295.4 336.4
343(17) 0.003460 295.6 337.4
369(17) 0.003460 295.7 338.4
362(17) 0.003460 295.8 339.5
358(17) 0.003460 295.9 340.7
349(17) 0.003460 296.0 341.9
339(17) 0.003460 296.2 343.1
348(17) 0.003460 296.3 344.4
345(17) 0.003460 296.4 345.8
345(17) 0.003460 296.5 347.2
361(17) 0.003460 296.7 348.7
349(17) 0.003460 296.8 350.2
347(17) 0.003460 296.9 351.7
366(17) 0.003460 297.1 353.3
358(17) 0.003460 297.2 354.9
362(17) 0.003460 297.4 356.5
356(17) 0.003460 297.5 358.2
358(17) 0.003460 297.7 359.9
364(17) 0.003460 297.8 361.6
360(17) 0.003460 298.0 363.3
369(17) 0.003460 298.1 365.0
370(18) 0.003086 298.3 366.7
385(18) 0.003086 298.4 368.3
382(18) 0.003086 298.6 369.9
368(17) 0.003460 298.8 371.5
383(18) 0.003086 298.9 372.9
391(18) 0.003086 299.1 374.3
392(18) 0.003086 299.3 375.6
387(18) 0.003086 299.4 376.8
372(18) 0.003086 299.6 377.8
370(18) 0.003086 299.8 378.8
364(17) 0.003460 300.0 379.6
367(17) 0.003460 300.2 380.2
378(18) 0.003086 300.3 380.8
357(17) 0.003460 300.5 381.1
372(18) 0.003086 300.7 381.4
382(18) 0.003086 300.9 381.5
382(18) 0.003086 301.1 381.5
380(18) 0.003086 301.3 381.4
374(18) 0.003086 301.5 381.1
380(18) 0.003086 301.7 380.8
391(18) 0.003086 301.9 380.4
384(18) 0.003086 302.2 379.9
389(18) 0.003086 302.4 379.3
393(18) 0.003086 302.6 378.7
375(18) 0.003086 302.8 378.0
382(18) 0.003086 303.0 377.3
388(18) 0.003086 303.3 376.5
377(18) 0.003086 303.5 375.7
380(18) 0.003086 303.7 374.9
393(18) 0.003086 304.0 374.1
376(18) 0.003086 304.2 373.2
379(18) 0.003086 304.5 372.4
381(18) 0.003086 304.7 371.5
379(18) 0.003086 305.0 370.7
356(17) 0.003460 305.2 369.9
359(17) 0.003460 305.5 369.0
364(17) 0.003460 305.7 368.2
377(18) 0.003086 306.0 367.4
379(18) 0.003086 306.3 366.6
374(18) 0.003086 306.6 365.9
372(18) 0.003086 306.8 365.2
371(18) 0.003086 307.1 364.5
356(17) 0.003460 307.4 363.8
372(18) 0.003086 307.7 363.2
358(17) 0.003460 308.0 362.7
346(17) 0.003460 308.3 362.2
390(18) 0.003086 308.6 361.7
351(17) 0.003460 308.9 361.3
355(17) 0.003460 309.2 361.0
365(17) 0.003460 309.5 360.7
341(17) 0.003460 309.9 360.4
337(17) 0.003460 310.2 360.3
367(17) 0.003460 310.5 360.1
356(17) 0.003460 310.8 360.1
354(17) 0.003460 311.2 360.1
356(17) 0.003460 311.5 360.1
364(17) 0.003460 311.9 360.2
369(17) 0.003460 312.2 360.4
380(18) 0.003086 312.6 360.6
387(18) 0.003086 312.9 360.9
357(17) 0.003460 313.3 361.2
343(17) 0.003460 313.7 361.6
363(17) 0.003460 314.0 362.0
376(18) 0.003086 314.4 362.5
365(17) 0.003460 314.8 363.0
368(17) 0.003460 315.2 363.6
366(17) 0.003460 315.6 364.2
348(17) 0.003460 316.0 364.8
358(17) 0.003460 316.4 365.5
366(17) 0.003460 316.8 366.2
343(17) 0.003460 317.2 366.9
366(17) 0.003460 317.7 367.7
369(17) 0.003460 318.1 368.5
371(14) 0.00510 318.5 369.4
372(18) 0.003086 319.0 370.2
388(18) 0.003086 319.4 371.2
391(18) 0.003086 319.9 372.1
385(18) 0.003086 320.3 373.1
376(18) 0.003086 320.8 374.1
390(18) 0.003086 321.2 375.1
388(18) 0.003086 321.7 376.2
382(18) 0.003086 322.2 377.3
369(18) 0.003086 322.7 378.5
375(18) 0.003086 323.2 379.7
377(18) 0.003086 323.7 380.9
384(18) 0.003086 324.2 382.2
388(18) 0.003086 324.7 383.5
392(18) 0.003086 325.2 384.8
385(18) 0.003086 325.7 386.2
394(18) 0.003086 326.3 387.6
383(18) 0.003086 326.8 389.0
403(18) 0.003086 327.3 390.4
423(19) 0.002770 327.9 391.9
411(19) 0.002770 328.4 393.4
417(19) 0.002770 329.0 394.8
426(19) 0.002770 329.6 396.3
408(18) 0.003086 330.2 397.8
394(18) 0.003086 330.7 399.3
386(18) 0.003086 331.3 400.7
408(18) 0.003086 331.9 402.2
421(19) 0.002770 332.5 403.6
412(19) 0.002770 333.2 405.0
414(19) 0.002770 333.8 406.3
425(19) 0.002770 334.4 407.6
429(19) 0.002770 335.0 408.9
433(19) 0.002770 335.7 410.1
425(19) 0.002770 336.3 411.3
407(18) 0.003086 337.0 412.4
402(18) 0.003086 337.7 413.4
400(18) 0.003086 338.4 414.4
418(19) 0.002770 339.0 415.4
437(19) 0.002770 339.7 416.3
420(19) 0.002770 340.4 417.2
394(18) 0.003086 341.1 418.0
419(19) 0.002770 341.9 418.7
425(19) 0.002770 342.6 419.4
410(18) 0.003086 343.3 420.1
421(19) 0.002770 344.1 420.8
426(19) 0.002770 344.8 421.4
439(19) 0.002770 345.6 422.0
432(19) 0.002770 346.3 422.6
421(19) 0.002770 347.1 423.1
428(19) 0.002770 347.9 423.6
431(19) 0.002770 348.7 424.2
404(18) 0.003086 349.5 424.7
411(18) 0.003086 350.3 425.2
414(19) 0.002770 351.2 425.7
413(19) 0.002770 352.0 426.3
417(19) 0.002770 352.8 426.8
390(18) 0.003086 353.7 427.3
396(18) 0.003086 354.6 427.9
429(19) 0.002770 355.4 428.4
419(19) 0.002770 356.3 429.0
410(18) 0.003086 357.2 429.6
421(19) 0.002770 358.1 430.2
423(19) 0.002770 359.0 430.9
431(19) 0.002770 360.0 431.5
430(19) 0.002770 360.9 432.2
441(19) 0.002770 361.8 432.9
451(19) 0.002770 362.8 433.6
456(19) 0.002770 363.8 434.3
444(19) 0.002770 364.7 435.0
420(19) 0.002770 365.7 435.8
447(19) 0.002770 366.7 436.5
432(19) 0.002770 367.8 437.3
417(19) 0.002770 368.8 438.1
420(19) 0.002770 369.8 438.9
422(19) . . .
423(19) . . .
419(19) . . .
407(18) . . .
417(19) . . .
419(19) . . .
412(19) . . .
439(19) . . .
440(19) . . .
428(19) . . .
422(19) . . .
420(19) . . .
425(19) . . .
448(19) . . .
464(20) . . .
452(19) . . .
446(19) . . .
427(19) . . .
452(19) . . .
449(19) . . .
445(19) . . .
463(20) . . .
444(19) . . .
471(20) . . .
453(19) . . .
438(19) . . .
462(20) . . .
449(20) . . .
441(20) . . .
462(20) . . .
466(20) . . .
462(20) . . .
453(20) . . .
440(20) . . .
449(20) . . .
464(20) . . .
462(20) . . .
456(20) . . .
449(20) . . .
463(20) . . .
479(20) . . .
435(19) . . .
453(20) . . .
498(21) . . .
480(20) . . .
477(20) . . .
457(20) . . .
458(20) . . .
449(20) . . .
444(20) . . .
448(20) . . .
469(20) . . .
479(20) . . .
463(20) . . .
476(20) . . .
487(20) . . .
462(20) . . .
444(20) . . .
454(20) . . .
458(20) . . .
499(21) . . .
506(21) . . .
500(21) . . .
500(21) . . .
468(20) . . .
498(21) . . .
478(20) . . .
489(20) . . .
473(20) . . .
490(21) . . .
505(21) . . .
487(20) . . .
480(20) . . .
513(21) . . .
497(21) . . .
500(21) . . .
505(21) . . .
533(21) . . .
489(21) . . .
499(21) . . .
510(21) . . .
562(22) . . .
543(21) . . .
508(21) . . .
532(21) . . .
498(21) . . .
514(21) . . .
532(21) . . .
550(22) . . .
526(21) . . .
526(21) . . .
574(22) . . .
576(22) . . .
539(21) . . .
541(21) . . .
540(21) . . .
540(21) . . .
558(22) . . .
555(22) . . .
558(22) . . .
558(22) . . .
553(22) . . .
557(22) . . .
557(22) . . .
607(23) . . .
590(22) . . .
562(22) . . .
570(22) . . .
562(22) . . .
588(22) . . .
559(22) . . .
551(22) . . .
570(22) . . .
580(22) . . .
553(22) . . .
574(22) . . .
575(22) . . .
597(22) . . .
597(22) . . .
602(22) . . .
612(23) . . .
580(22) . . .
577(22) . . .
600(22) . . .
615(23) . . .
591(22) . . .
649(33) . . .
657(34) . . .
604(32) . . .
594(32) . . .
611(32) . . .
619(33) . . .
569(31) . . .
600(32) . . .
563(31) . . .
581(32) . . .
595(32) . . .
621(33) . . .
644(33) . . .
695(34) . . .
587(32) . . .
664(34) . . .
658(34) . . .
666(34) . . .
641(33) . . .
657(34) . . .
617(33) . . .
668(34) . . .
648(33) . . .
656(34) . . .
637(33) . . .
669(34) . . .
639(33) . . .
661(34) . . .
641(33) . . .
671(34) . . .
677(34) . . .
719(35) . . .
657(34) . . .
703(35) . . .
719(35) . . .
714(35) . . .
725(35) . . .
758(36) . . .
691(34) . . .
702(35) . . .
681(34) . . .
762(36) . . .
746(36) . . .
710(35) . . .
697(34) . . .
735(35) . . .
713(35) . . .
730(35) . . .
722(35) . . .
701(35) . . .
701(35) . . .
766(36) . . .
735(35) . . .
722(35) . . .
705(35) . . .
692(34) . . .
747(36) . . .
713(35) . . .
667(34) . . .
764(36) . . .
771(36) . . .
754(36) . . .
765(36) . . .
701(35) . . .
723(35) . . .
726(35) . . .
725(35) . . .
749(36) . . .
766(36) . . .
765(36) . . .
757(36) . . .
747(36) . . .
735(35) . . .
827(37) . . .
762(36) . . .
785(36) . . .
795(37) . . .
762(36) . . .
798(37) . . .
813(37) . . .
785(36) . . .
790(36) . . .
753(36) . . .
762(36) . . .
746(35) . . .
803(37) . . .
816(37) . . .
812(37) . . .
739(35) . . .
820(37) . . .
846(38) . . .
880(38) . . .
852(38) . . .
795(37) . . .
831(37) . . .
815(37) . . .
843(38) . . .
793(36) . . .
800(37) . . .
797(37) . . .
#BEGIN Loops that were not found in dictionaries:
loop_
_gsas_i100_meas
100.00
16.76
0.43
6.00
6.84
1.72
1.21
1.81
5.22
1.98
0.22
4.90
1.53
1.07
1.18
0.02
0.16
0.20
0.75
5.41
1.99
0.27
2.73
0.00
0.19
1.53
0.33
0.48
0.00
0.48
0.00
0.00
0.18
0.66
1.99
0.32
0.01
0.00
0.34
0.17
0.19
1.14
3.63
0.21
0.50
0.10
0.08
0.12
0.15
0.25
0.24
1.02
0.02
0.25
0.09
0.39
0.13
0.26
0.12
0.72
0.13
0.88
0.51
0.00
0.00
0.05
0.27
0.01
0.08
1.88
0.42
0.47
0.71
0.03
0.04
0.99
0.02
0.82
0.03
1.70
0.00
0.89
0.16
0.21
0.05
1.00
0.05
0.01
1.06
0.07
0.04
0.03
0.16
2.38
2.44
0.60
0.05
0.26
0.18
2.68
0.69
2.58
0.00
0.00
0.34
0.48
0.03
0.03
0.43
0.02
0.53
0.15
0.39
0.00
0.85
0.03
0.67
0.05
0.38
0.01
0.08
0.07
0.43
0.10
0.26
0.06
0.28
0.16
0.00
0.02
0.00
0.01
0.14
0.04
0.21
0.00
0.18
0.48
1.56
0.34
0.00
0.22
1.07
0.01
0.36
0.00
0.07
0.01
0.22
0.09
0.02
0.00
0.51
0.00
0.02
0.00
0.08
0.00
0.32
0.14
0.18
0.01
0.04
0.50
0.04
0.00
0.29
0.32
0.06
0.02
0.12
0.16
0.24
0.10
0.33
0.00
0.27
0.08
0.04
0.04
0.05
0.03
0.01
0.10
0.00
0.49
0.12
0.21
0.86
0.03
0.07
0.17
0.66
2.19
0.02
0.01
0.21
0.10
0.19
0.30
0.90
0.05
0.02
0.30
0.12
0.07
0.03
0.47
0.04
0.13
0.07
0.21
0.17
0.17
0.11
0.02
0.01
0.74
0.74
0.03
0.23
0.28
0.01
0.02
0.04
0.14
0.00
0.08
0.05
0.05
0.01
0.30
0.07
0.00
0.06
0.03
0.16
0.12
0.05
0.15
0.05
0.05
0.48
0.48
0.12
0.12
0.02
0.70
0.08
0.10
0.11
0.03
0.01
0.00
0.38
0.01
0.15
0.16
0.06
0.04
0.26
0.77
0.30
0.01
0.35
0.16
0.03
0.01
0.09
0.03
0.08
1.84
0.00
0.21
0.05
0.02
0.28
0.00
0.05
0.01
0.00
0.15
0.41
0.01
0.05
0.02
0.01
0.05
0.15
0.05
0.15
0.01
0.05
0.02
0.00
0.02
0.00
0.57
0.08
0.02
0.00
0.09
0.09
0.10
0.00
0.00
0.03
0.04
0.21
0.07
0.00
0.00
0.05
0.40
0.02
0.11
0.13
0.02
0.44
0.24
0.05
0.30
0.05
0.14
0.01
0.02
0.42
0.00
0.00
0.30
0.00
0.06
0.14
0.00
0.49
0.21
0.01
0.81
1.10
0.07
0.00
0.15
0.45
0.02
0.06
1.08
0.23
0.14
0.00
0.01
0.02
0.05
0.26
0.10
0.01
0.00
0.05
0.03
0.19
0.18
0.12
0.03
0.49
0.06
0.06
0.22
0.33
0.24
0.03
0.21
0.05
0.34
1.87
0.35
0.56
0.01
0.01
0.02
0.22
0.24
0.06
0.02
0.91
0.12
0.00
0.07
0.00
0.13
0.00
0.08
0.52
1.74
0.11
0.00
0.61
0.01
0.44
0.01
0.01
0.01
0.13
0.10
0.16
0.00
0.16
0.21
0.05
0.33
0.15
0.01
0.01
0.02
0.08
0.01
0.21
0.03
0.00
0.03
0.00
0.07
0.01
0.51
0.09
0.01
0.11
0.66
0.13
0.02
1.45
0.08
0.11
0.24
0.12
0.00
0.20
0.00
0.44
0.16
0.01
0.88
0.01
0.02
0.01
0.49
0.37
0.02
0.00
0.28
0.02
0.47
0.29
0.01
0.39
0.02
0.15
0.14
0.02
1.34
0.28
0.03
0.31
0.34
0.01
0.01
0.00
0.28
0.51
0.00
0.57
0.70
0.02
0.18
0.00
0.02
0.17
0.23
0.00
0.25
0.01
0.00
0.00
0.00
0.01
0.07
0.01
0.00
0.00
0.13
0.20
0.09
0.02
0.02
0.41
0.06
0.12
0.53
0.00
0.19
0.01
0.18
0.01
0.12
0.33
0.00
0.41
0.09
0.59
0.03
0.89
0.02
0.60
0.03
0.09
0.03
0.07
0.63
0.20
0.26
0.91
0.01
0.06
0.17
0.00
0.09
0.63
0.07
0.72
0.03
0.35
0.05
0.15
0.01
0.12
0.03
0.22
0.47
0.24
0.06
0.02
0.25
0.02
0.07
0.42
0.00
0.01
0.02
0.08
0.11
0.02
0.26
0.25
1.13
0.06
0.53
0.31
0.36
0.13
0.00
1.32
0.02
0.08
0.23
0.06
0.05
0.01
0.00
0.17
0.34
0.00
0.43
0.00
0.04
0.06
0.11
0.34
0.33
0.02
0.04
0.55
0.02
0.00
0.25
0.47
0.44
0.43
0.29
0.07
0.03
0.31
0.22
0.66
0.01
0.02
0.02
0.09
0.08
0.14
0.09
0.39
0.01
0.11
0.01
0.09
0.22
0.00
0.26
0.64
0.26
0.24
0.02
0.00
0.94
0.10
0.13
0.08
1.27
0.44
0.16
0.01
0.02
0.07
0.27
0.04
0.13
0.87
0.00
1.26
0.89
0.74
0.03
0.17
0.05
0.01
0.39
0.44
0.02
0.21
0.60
0.83
0.00
0.07
0.16
0.38
0.04
0.11
0.50
0.00
0.03
0.68
0.40
0.15
0.12
0.02
0.10
0.27
0.53
0.09
0.07
0.24
0.85
0.81
0.59
0.08
0.08
0.23
0.11
0.14
1.07
0.07
0.38
0.04
0.12
0.00
0.00
0.15
0.00
0.17
0.49
0.02
0.44
0.70
0.01
0.53
0.39
0.08
0.10
0.34
0.01
0.30
0.01
0.91
0.22
0.22
0.16
0.45
0.42
0.01
1.87
0.06
0.32
0.00
0.66
0.43
0.18
0.10
0.09
0.02
0.97
0.11
0.00
0.02
0.65
0.20
0.10
0.01
0.27
0.44
0.49
0.75
0.00
0.01
0.11
0.01
0.29
0.33
0.01
0.01
0.04
0.06
0.01
0.01
1.15
0.04
0.64
0.19
0.31
0.06
0.04
0.11
1.26
0.01
0.33
0.05
0.06
0.07
0.01
0.20
0.12
0.04
0.04
0.61
0.00
1.52
0.08
0.07
0.07
0.11
0.10
0.06
0.02
0.25
0.12
1.07
0.05
0.01
0.35
0.02
#END Loops that were not found in dictionaries
